# generated using pymatgen
data_Zn2H6C18(SO4)3
_symmetry_space_group_name_H-M   'P 1'
_cell_length_a   26.99930000
_cell_length_b   33.39752379
_cell_length_c   33.39500000
_cell_angle_alpha   120.00250000
_cell_angle_beta   90.00000000
_cell_angle_gamma   90.00000000
_symmetry_Int_Tables_number   1
_chemical_formula_structural   Zn2H6C18(SO4)3
_chemical_formula_sum   'Zn12 H36 C108 S18 O72'
_cell_volume   26077.61749402
_cell_formula_units_Z   6
loop_
 _symmetry_equiv_pos_site_id
 _symmetry_equiv_pos_as_xyz
  1  'x, y, z'
loop_
 _atom_site_type_symbol
 _atom_site_label
 _atom_site_symmetry_multiplicity
 _atom_site_fract_x
 _atom_site_fract_y
 _atom_site_fract_z
 _atom_site_occupancy
  Zn  Zn0  1  0.81941000  0.95544000  0.62994000  1.0
  Zn  Zn1  1  0.72065000  0.95894000  0.31829000  1.0
  Zn  Zn2  1  0.80959000  0.64281000  0.02009000  1.0
  Zn  Zn3  1  0.32774000  0.01599000  0.36544000  1.0
  Zn  Zn4  1  0.81162000  0.36856000  0.32681000  1.0
  Zn  Zn5  1  0.26295000  0.33925000  0.97014000  1.0
  Zn  Zn6  1  0.29057000  0.64572000  0.65480000  1.0
  Zn  Zn7  1  0.64398000  0.37161000  0.04462000  1.0
  Zn  Zn8  1  0.20715000  0.00801000  0.66533000  1.0
  Zn  Zn9  1  0.67603000  0.65899000  0.62407000  1.0
  Zn  Zn10  1  0.19321000  0.65617000  0.97227000  1.0
  Zn  Zn11  1  0.18746000  0.32344000  0.37952000  1.0
  H  H12  1  0.08593000  0.94086000  0.56486000  1.0
  H  H13  1  0.99645000  0.91934000  0.53559000  1.0
  H  H14  1  0.72482000  0.70451000  0.15279000  1.0
  H  H15  1  0.68949000  0.76981000  0.22943000  1.0
  H  H16  1  0.18020000  0.17752000  0.35146000  1.0
  H  H17  1  0.21462000  0.10361000  0.34721000  1.0
  H  H18  1  0.82220000  0.39727000  0.13574000  1.0
  H  H19  1  0.84320000  0.39412000  0.20935000  1.0
  H  H20  1  0.17472000  0.21327000  0.87288000  1.0
  H  H21  1  0.16042000  0.13384000  0.80009000  1.0
  H  H22  1  0.80240000  0.70938000  0.57430000  1.0
  H  H23  1  0.85437000  0.76912000  0.56542000  1.0
  H  H24  1  0.17704000  0.69622000  0.86093000  1.0
  H  H25  1  0.20233000  0.69390000  0.78535000  1.0
  H  H26  1  0.80593000  0.48674000  0.95277000  1.0
  H  H27  1  0.77694000  0.40915000  0.94383000  1.0
  H  H28  1  0.35283000  0.01205000  0.49641000  1.0
  H  H29  1  0.32533000  0.01132000  0.56996000  1.0
  H  H30  1  0.74110000  0.42668000  0.50173000  1.0
  H  H31  1  0.70813000  0.50617000  0.56407000  1.0
  H  H32  1  0.22134000  0.50185000  0.90237000  1.0
  H  H33  1  0.23770000  0.42550000  0.90182000  1.0
  H  H34  1  0.76198000  0.01641000  0.54527000  1.0
  H  H35  1  0.74455000  0.01753000  0.47000000  1.0
  H  H36  1  0.15047000  0.50696000  0.60141000  1.0
  H  H37  1  0.14345000  0.42857000  0.52592000  1.0
  H  H38  1  0.98599000  0.72216000  0.11196000  1.0
  H  H39  1  0.07409000  0.71583000  0.07975000  1.0
  H  H40  1  0.57322000  0.01310000  0.29953000  1.0
  H  H41  1  0.47879000  0.02650000  0.30968000  1.0
  H  H42  1  0.07292000  0.29066000  0.26972000  1.0
  H  H43  1  0.98600000  0.29096000  0.23813000  1.0
  H  H44  1  0.39779000  0.41054000  0.11013000  1.0
  H  H45  1  0.49311000  0.40950000  0.10958000  1.0
  H  H46  1  0.53103000  0.69423000  0.58042000  1.0
  H  H47  1  0.43592000  0.69847000  0.57771000  1.0
  C  C48  1  0.47742000  0.98878000  0.34752000  1.0
  C  C49  1  0.62071000  0.96358000  0.33881000  1.0
  C  C50  1  0.76450000  0.98590000  0.51138000  1.0
  C  C51  1  0.75514000  0.98652000  0.47048000  1.0
  C  C52  1  0.56877000  0.97584000  0.33774000  1.0
  C  C53  1  0.97122000  0.95307000  0.60736000  1.0
  C  C54  1  0.05450000  0.94962000  0.58787000  1.0
  C  C55  1  0.05818000  0.97399000  0.63583000  1.0
  C  C56  1  0.91745000  0.94701000  0.60077000  1.0
  C  C57  1  0.79066000  0.93129000  0.53991000  1.0
  C  C58  1  0.75384000  0.93356000  0.38318000  1.0
  C  C59  1  0.77735000  0.94239000  0.50396000  1.0
  C  C60  1  0.76115000  0.94359000  0.43088000  1.0
  C  C61  1  0.00588000  0.93797000  0.57195000  1.0
  C  C62  1  0.42478000  0.99044000  0.35900000  1.0
  C  C63  1  0.81947000  0.86231000  0.60601000  1.0
  C  C64  1  0.71415000  0.86368000  0.25800000  1.0
  C  C65  1  0.10442000  0.99220000  0.66184000  1.0
  C  C66  1  0.72898000  0.81993000  0.21737000  1.0
  C  C67  1  0.79804000  0.82123000  0.60460000  1.0
  C  C68  1  0.78651000  0.72761000  0.09770000  1.0
  C  C69  1  0.75934000  0.57062000  0.02092000  1.0
  C  C70  1  0.90728000  0.67097000  0.04970000  1.0
  C  C71  1  0.31073000  0.10565000  0.38413000  1.0
  C  C72  1  0.28121000  0.03317000  0.44634000  1.0
  C  C73  1  0.76660000  0.37217000  0.25451000  1.0
  C  C74  1  0.77248000  0.41486000  0.41437000  1.0
  C  C75  1  0.90619000  0.33487000  0.30169000  1.0
  C  C76  1  0.26940000  0.25715000  0.88641000  1.0
  C  C77  1  0.23910000  0.42618000  0.98808000  1.0
  C  C78  1  0.34541000  0.36281000  0.02439000  1.0
  C  C79  1  0.28440000  0.63724000  0.73319000  1.0
  C  C80  1  0.23182000  0.56692000  0.61251000  1.0
  C  C81  1  0.37720000  0.66747000  0.62836000  1.0
  C  C82  1  0.72258000  0.37954000  0.10170000  1.0
  C  C83  1  0.70001000  0.40922000  0.00305000  1.0
  C  C84  1  0.54424000  0.35979000  0.02328000  1.0
  C  C85  1  0.24016000  0.09153000  0.73555000  1.0
  C  C86  1  0.22406000  0.03205000  0.59911000  1.0
  C  C87  1  0.71127000  0.73770000  0.62464000  1.0
  C  C88  1  0.70409000  0.58027000  0.54404000  1.0
  C  C89  1  0.57544000  0.65898000  0.63451000  1.0
  C  C90  1  0.23294000  0.64302000  0.89119000  1.0
  C  C91  1  0.20509000  0.58469000  0.98920000  1.0
  C  C92  1  0.09134000  0.65647000  0.98291000  1.0
  C  C93  1  0.23952000  0.25945000  0.39204000  1.0
  C  C94  1  0.21689000  0.40423000  0.45540000  1.0
  C  C95  1  0.08707000  0.33353000  0.36757000  1.0
  C  C96  1  0.76316000  0.75660000  0.14294000  1.0
  C  C97  1  0.73317000  0.74065000  0.16588000  1.0
  C  C98  1  0.71383000  0.77612000  0.20743000  1.0
  C  C99  1  0.24819000  0.21356000  0.38649000  1.0
  C  C100  1  0.21601000  0.17613000  0.36527000  1.0
  C  C101  1  0.23476000  0.13595000  0.36284000  1.0
  C  C102  1  0.28166000  0.14178000  0.38221000  1.0
  C  C103  1  0.74536000  0.38056000  0.14209000  1.0
  C  C104  1  0.79492000  0.38972000  0.15478000  1.0
  C  C105  1  0.80630000  0.38812000  0.19483000  1.0
  C  C106  1  0.76570000  0.37764000  0.21357000  1.0
  C  C107  1  0.25040000  0.21283000  0.84935000  1.0
  C  C108  1  0.20298000  0.19545000  0.84695000  1.0
  C  C109  1  0.19515000  0.15236000  0.80736000  1.0
  C  C110  1  0.23650000  0.13588000  0.77880000  1.0
  C  C111  1  0.74758000  0.76324000  0.61327000  1.0
  C  C112  1  0.79109000  0.74502000  0.58841000  1.0
  C  C113  1  0.81935000  0.77748000  0.58360000  1.0
  C  C114  1  0.23760000  0.64849000  0.85038000  1.0
  C  C115  1  0.20781000  0.67589000  0.83977000  1.0
  C  C116  1  0.22168000  0.67475000  0.79879000  1.0
  C  C117  1  0.26230000  0.64639000  0.77717000  1.0
  C  C118  1  0.75083000  0.52205000  0.00736000  1.0
  C  C119  1  0.77652000  0.48416000  0.97337000  1.0
  C  C120  1  0.76065000  0.44201000  0.96843000  1.0
  C  C121  1  0.72266000  0.44680000  0.99866000  1.0
  C  C122  1  0.27795000  0.03334000  0.49025000  1.0
  C  C123  1  0.31579000  0.02126000  0.51049000  1.0
  C  C124  1  0.30087000  0.02081000  0.55040000  1.0
  C  C125  1  0.25140000  0.03276000  0.56156000  1.0
  C  C126  1  0.75176000  0.45482000  0.45566000  1.0
  C  C127  1  0.73804000  0.45598000  0.49639000  1.0
  C  C128  1  0.72010000  0.49915000  0.53025000  1.0
  C  C129  1  0.71954000  0.53182000  0.51603000  1.0
  C  C130  1  0.21427000  0.53681000  0.97760000  1.0
  C  C131  1  0.22189000  0.49939000  0.93346000  1.0
  C  C132  1  0.23076000  0.45794000  0.93316000  1.0
  C  C133  1  0.23006000  0.46289000  0.97706000  1.0
  C  C134  1  0.21883000  0.52047000  0.57512000  1.0
  C  C135  1  0.17745000  0.49504000  0.57383000  1.0
  C  C136  1  0.17368000  0.45244000  0.53286000  1.0
  C  C137  1  0.21207000  0.44447000  0.50197000  1.0
  C  C138  1  0.96001000  0.67524000  0.04170000  1.0
  C  C139  1  0.99474000  0.70142000  0.07556000  1.0
  C  C140  1  0.04257000  0.69814000  0.05802000  1.0
  C  C141  1  0.04557000  0.66917000  0.01036000  1.0
  C  C142  1  0.55041000  0.00049000  0.31751000  1.0
  C  C143  1  0.49916000  0.00787000  0.32312000  1.0
  C  C144  1  0.04291000  0.32859000  0.33984000  1.0
  C  C145  1  0.04115000  0.30654000  0.29184000  1.0
  C  C146  1  0.99391000  0.30662000  0.27468000  1.0
  C  C147  1  0.95859000  0.32892000  0.30920000  1.0
  C  C148  1  0.39860000  0.36705000  0.03485000  1.0
  C  C149  1  0.41932000  0.39212000  0.07872000  1.0
  C  C150  1  0.47111000  0.39166000  0.07842000  1.0
  C  C151  1  0.49117000  0.36626000  0.03430000  1.0
  C  C152  1  0.52344000  0.66623000  0.62689000  1.0
  C  C153  1  0.50675000  0.68368000  0.59925000  1.0
  C  C154  1  0.45507000  0.68604000  0.59784000  1.0
  C  C155  1  0.43110000  0.67052000  0.62444000  1.0
  S  S156  1  0.52160000  0.96306000  0.36229000  1.0
  S  S157  1  0.00093000  0.98104000  0.65857000  1.0
  S  S158  1  0.77756000  0.90478000  0.44664000  1.0
  S  S159  1  0.74412000  0.81964000  0.62919000  1.0
  S  S160  1  0.76606000  0.81471000  0.17443000  1.0
  S  S161  1  0.29990000  0.19682000  0.40235000  1.0
  S  S162  1  0.71568000  0.37041000  0.18049000  1.0
  S  S163  1  0.28261000  0.17475000  0.80252000  1.0
  S  S164  1  0.28097000  0.62283000  0.80891000  1.0
  S  S165  1  0.70865000  0.50327000  0.03136000  1.0
  S  S166  1  0.22617000  0.04370000  0.52194000  1.0
  S  S167  1  0.74144000  0.50722000  0.46160000  1.0
  S  S168  1  0.21848000  0.51854000  0.01617000  1.0
  S  S169  1  0.25067000  0.49016000  0.52549000  1.0
  S  S170  1  0.98876000  0.64784000  0.99002000  1.0
  S  S171  1  0.98591000  0.34838000  0.36101000  1.0
  S  S172  1  0.44458000  0.34431000  0.99564000  1.0
  S  S173  1  0.47407000  0.65382000  0.64964000  1.0
  O  O174  1  0.40877000  0.96734000  0.37874000  1.0
  O  O175  1  0.88774000  0.96051000  0.63646000  1.0
  O  O176  1  0.79754000  0.96481000  0.58271000  1.0
  O  O177  1  0.65467000  0.97235000  0.31604000  1.0
  O  O178  1  0.73586000  0.96575000  0.37555000  1.0
  O  O179  1  0.14619000  0.98501000  0.63908000  1.0
  O  O180  1  0.89889000  0.92825000  0.55893000  1.0
  O  O181  1  0.63344000  0.94424000  0.36319000  1.0
  O  O182  1  0.79490000  0.90154000  0.62548000  1.0
  O  O183  1  0.73768000  0.90211000  0.26834000  1.0
  O  O184  1  0.79868000  0.88821000  0.52888000  1.0
  O  O185  1  0.76423000  0.89239000  0.34843000  1.0
  O  O186  1  0.86329000  0.85994000  0.58793000  1.0
  O  O187  1  0.67783000  0.86438000  0.28447000  1.0
  O  O188  1  0.80719000  0.74655000  0.07558000  1.0
  O  O189  1  0.78550000  0.68239000  0.07869000  1.0
  O  O190  1  0.87672000  0.65053000  0.01447000  1.0
  O  O191  1  0.89071000  0.68729000  0.09201000  1.0
  O  O192  1  0.72937000  0.60277000  0.05053000  1.0
  O  O193  1  0.79706000  0.58211000  0.00381000  1.0
  O  O194  1  0.35321000  0.11572000  0.40619000  1.0
  O  O195  1  0.29407000  0.06300000  0.36369000  1.0
  O  O196  1  0.39341000  0.01497000  0.34998000  1.0
  O  O197  1  0.24168000  0.04146000  0.42873000  1.0
  O  O198  1  0.32301000  0.02194000  0.42316000  1.0
  O  O199  1  0.72649000  0.35945000  0.26746000  1.0
  O  O200  1  0.80806000  0.37859000  0.27750000  1.0
  O  O201  1  0.87698000  0.36016000  0.33696000  1.0
  O  O202  1  0.88839000  0.31538000  0.25946000  1.0
  O  O203  1  0.77801000  0.37512000  0.41299000  1.0
  O  O204  1  0.78582000  0.41871000  0.37862000  1.0
  O  O205  1  0.31348000  0.27168000  0.88284000  1.0
  O  O206  1  0.24210000  0.28260000  0.92309000  1.0
  O  O207  1  0.32977000  0.33945000  0.98145000  1.0
  O  O208  1  0.31309000  0.38396000  0.05796000  1.0
  O  O209  1  0.23749000  0.43547000  0.03119000  1.0
  O  O210  1  0.24972000  0.38407000  0.95511000  1.0
  O  O211  1  0.31952000  0.60614000  0.71381000  1.0
  O  O212  1  0.26773000  0.65891000  0.71220000  1.0
  O  O213  1  0.35836000  0.65209000  0.65441000  1.0
  O  O214  1  0.34737000  0.67878000  0.60453000  1.0
  O  O215  1  0.20184000  0.58934000  0.64784000  1.0
  O  O216  1  0.27295000  0.58663000  0.61008000  1.0
  O  O217  1  0.74998000  0.38571000  0.07275000  1.0
  O  O218  1  0.67472000  0.37257000  0.09447000  1.0
  O  O219  1  0.57712000  0.37992000  0.05652000  1.0
  O  O220  1  0.55906000  0.33366000  0.98038000  1.0
  O  O221  1  0.71324000  0.36615000  0.97509000  1.0
  O  O222  1  0.66845000  0.41865000  0.03657000  1.0
  O  O223  1  0.28279000  0.07829000  0.71386000  1.0
  O  O224  1  0.20126000  0.06448000  0.71870000  1.0
  O  O225  1  0.10400000  0.01676000  0.70718000  1.0
  O  O226  1  0.17793000  0.04637000  0.60738000  1.0
  O  O227  1  0.24431000  0.01425000  0.62250000  1.0
  O  O228  1  0.67196000  0.75873000  0.64945000  1.0
  O  O229  1  0.71864000  0.69374000  0.61052000  1.0
  O  O230  1  0.61118000  0.66863000  0.61395000  1.0
  O  O231  1  0.58651000  0.64246000  0.66176000  1.0
  O  O232  1  0.70392000  0.60723000  0.52589000  1.0
  O  O233  1  0.69193000  0.59729000  0.58770000  1.0
  O  O234  1  0.26634000  0.61920000  0.89907000  1.0
  O  O235  1  0.19607000  0.66233000  0.92041000  1.0
  O  O236  1  0.13350000  0.67593000  0.00275000  1.0
  O  O237  1  0.09088000  0.62350000  0.93939000  1.0
  O  O238  1  0.19902000  0.61708000  0.03252000  1.0
  O  O239  1  0.20357000  0.59562000  0.95653000  1.0
  O  O240  1  0.27415000  0.29127000  0.40953000  1.0
  O  O241  1  0.19781000  0.26810000  0.37757000  1.0
  O  O242  1  0.13041000  0.31953000  0.34733000  1.0
  O  O243  1  0.08326000  0.35150000  0.41253000  1.0
  O  O244  1  0.25359000  0.40190000  0.42850000  1.0
  O  O245  1  0.18338000  0.37134000  0.43957000  1.0
