# generated using pymatgen
data_TbH36C54(IO2)3
_symmetry_space_group_name_H-M   'P 1'
_cell_length_a   25.67796847
_cell_length_b   27.55975000
_cell_length_c   51.92680000
_cell_angle_alpha   80.96500000
_cell_angle_beta   80.26423968
_cell_angle_gamma   66.78535254
_symmetry_Int_Tables_number   1
_chemical_formula_structural   TbH36C54(IO2)3
_chemical_formula_sum   'Tb6 H216 C324 I18 O36'
_cell_volume   33119.70468008
_cell_formula_units_Z   6
loop_
 _symmetry_equiv_pos_site_id
 _symmetry_equiv_pos_as_xyz
  1  'x, y, z'
loop_
 _atom_site_type_symbol
 _atom_site_label
 _atom_site_symmetry_multiplicity
 _atom_site_fract_x
 _atom_site_fract_y
 _atom_site_fract_z
 _atom_site_occupancy
  C  C0  1  0.57564000  0.51068000  0.88314000  1.0
  C  C1  1  0.63816000  0.62016000  0.81412000  1.0
  C  C2  1  0.74764000  0.49718000  0.79998000  1.0
  C  C3  1  0.71396000  0.40160000  0.73802000  1.0
  C  C4  1  0.78940000  0.27908000  0.79075000  1.0
  C  C5  1  0.60440000  0.43140000  0.80601000  1.0
  C  C6  1  0.10174000  0.60458000  0.40016000  1.0
  C  C7  1  0.03000000  0.74564000  0.43433000  1.0
  C  C8  1  0.02742000  0.57168000  0.47386000  1.0
  C  C9  1  0.16466000  0.45726000  0.53315000  1.0
  C  C10  1  0.23758000  0.36810000  0.47333000  1.0
  C  C11  1  0.21546000  0.54742000  0.47275000  1.0
  C  C12  1  0.46368000  0.95494000  0.21113000  1.0
  C  C13  1  0.33312000  0.07440000  0.17621000  1.0
  C  C14  1  0.48458000  0.07094000  0.14755000  1.0
  C  C15  1  0.62024000  0.93434000  0.10061000  1.0
  C  C16  1  0.66334000  0.84464000  0.16636000  1.0
  C  C17  1  0.51663000  0.84701000  0.15489000  1.0
  C  C18  1  0.20820000  0.44750000  0.71647000  1.0
  C  C19  1  0.25486000  0.43700000  0.73016000  1.0
  C  C20  1  0.24550000  0.44674000  0.75684000  1.0
  C  C21  1  0.18930000  0.46246000  0.77025000  1.0
  C  C22  1  0.14270000  0.47134000  0.75646000  1.0
  C  C23  1  0.15224000  0.46726000  0.72920000  1.0
  C  C24  1  0.64356000  0.98548000  0.40209000  1.0
  C  C25  1  0.60734000  0.03102000  0.41442000  1.0
  C  C26  1  0.55260000  0.06024000  0.40674000  1.0
  C  C27  1  0.53348000  0.04324000  0.38722000  1.0
  C  C28  1  0.56878000  0.99620000  0.37583000  1.0
  C  C29  1  0.62400000  0.96736000  0.38315000  1.0
  C  C30  1  0.50328000  0.51436000  0.11678000  1.0
  C  C31  1  0.50398000  0.52406000  0.08920000  1.0
  C  C32  1  0.49802000  0.48766000  0.07486000  1.0
  C  C33  1  0.49272000  0.44068000  0.08768000  1.0
  C  C34  1  0.49098000  0.43052000  0.11524000  1.0
  C  C35  1  0.49646000  0.46744000  0.12985000  1.0
  C  C36  1  0.63108000  0.49252000  0.55819000  1.0
  C  C37  1  0.58692000  0.49256000  0.54548000  1.0
  C  C38  1  0.57824000  0.51982000  0.52021000  1.0
  C  C39  1  0.61542000  0.54478000  0.50725000  1.0
  C  C40  1  0.66054000  0.54312000  0.51985000  1.0
  C  C41  1  0.66692000  0.51894000  0.54570000  1.0
  C  C42  1  0.02612000  0.49592000  0.24388000  1.0
  C  C43  1  0.98230000  0.53068000  0.22921000  1.0
  C  C44  1  0.97306000  0.51524000  0.20621000  1.0
  C  C45  1  0.01032000  0.46562000  0.19730000  1.0
  C  C46  1  0.05474000  0.43096000  0.21209000  1.0
  C  C47  1  0.06018000  0.44528000  0.23614000  1.0
  C  C48  1  0.79354000  0.93672000  0.87620000  1.0
  C  C49  1  0.79260000  0.92998000  0.90364000  1.0
  C  C50  1  0.78308000  0.88600000  0.91810000  1.0
  C  C51  1  0.77724000  0.84764000  0.90507000  1.0
  C  C52  1  0.77584000  0.85580000  0.87762000  1.0
  C  C53  1  0.78272000  0.90118000  0.86327000  1.0
  C  C54  1  0.63576000  0.69470000  0.83643000  1.0
  C  C55  1  0.65826000  0.66246000  0.81556000  1.0
  C  C56  1  0.70594000  0.66558000  0.79825000  1.0
  C  C57  1  0.73448000  0.69654000  0.80320000  1.0
  C  C58  1  0.78914000  0.76158000  0.82883000  1.0
  C  C59  1  0.80320000  0.79200000  0.84364000  1.0
  C  C60  1  0.76350000  0.81910000  0.86403000  1.0
  C  C61  1  0.71074000  0.81300000  0.87054000  1.0
  C  C62  1  0.64828000  0.76348000  0.86177000  1.0
  C  C63  1  0.66314000  0.72732000  0.84033000  1.0
  C  C64  1  0.71288000  0.72596000  0.82473000  1.0
  C  C65  1  0.73616000  0.75726000  0.83542000  1.0
  C  C66  1  0.69866000  0.78040000  0.85646000  1.0
  C  C67  1  0.64588000  0.73330000  0.88925000  1.0
  C  C68  1  0.59202000  0.81114000  0.85833000  1.0
  C  C69  1  0.28658000  0.56136000  0.49443000  1.0
  C  C70  1  0.27422000  0.54102000  0.47404000  1.0
  C  C71  1  0.31858000  0.51314000  0.45539000  1.0
  C  C72  1  0.37540000  0.50436000  0.45743000  1.0
  C  C73  1  0.49568000  0.49250000  0.47398000  1.0
  C  C74  1  0.54112000  0.49246000  0.48561000  1.0
  C  C75  1  0.53052000  0.52152000  0.50736000  1.0
  C  C76  1  0.47406000  0.55026000  0.51766000  1.0
  C  C77  1  0.36624000  0.57248000  0.51541000  1.0
  C  C78  1  0.34316000  0.55370000  0.49571000  1.0
  C  C79  1  0.38644000  0.52492000  0.47783500  1.0
  C  C80  1  0.44024000  0.52098000  0.48475000  1.0
  C  C81  1  0.42934000  0.54868000  0.50633000  1.0
  C  C82  1  0.35204000  0.55012000  0.54358000  1.0
  C  C83  1  0.34430000  0.63342000  0.51311000  1.0
  C  C84  1  0.70884000  0.74706000  0.18110000  1.0
  C  C85  1  0.70912000  0.79184000  0.16370000  1.0
  C  C86  1  0.75710000  0.78770000  0.14495000  1.0
  C  C87  1  0.80482000  0.74000000  0.14371000  1.0
  C  C88  1  0.90726000  0.62914000  0.15578000  1.0
  C  C89  1  0.94682000  0.58324000  0.16769000  1.0
  C  C90  1  0.92922000  0.55470000  0.19016000  1.0
  C  C91  1  0.87060000  0.57140000  0.19993000  1.0
  C  C92  1  0.76968000  0.64864000  0.19798000  1.0
  C  C93  1  0.75712000  0.69946000  0.17962500  1.0
  C  C94  1  0.80394000  0.69660000  0.16135000  1.0
  C  C95  1  0.85018000  0.64612000  0.16661000  1.0
  C  C96  1  0.83164000  0.61794000  0.18806000  1.0
  C  C97  1  0.73162000  0.61944000  0.19449000  1.0
  C  C98  1  0.76284000  0.65956000  0.22679000  1.0
  C  C99  1  0.75530000  0.20820000  0.81316000  1.0
  C  C100  1  0.79938000  0.22278000  0.79858000  1.0
  C  C101  1  0.85424000  0.18334000  0.79296000  1.0
  C  C102  1  0.86560000  0.13018000  0.80239000  1.0
  C  C103  1  0.86818000  0.01818000  0.83216000  1.0
  C  C104  1  0.85840000  0.97538000  0.84748000  1.0
  C  C105  1  0.80374000  0.98222000  0.86092000  1.0
  C  C106  1  0.75858000  0.03198000  0.85904000  1.0
  C  C107  1  0.72824000  0.13106000  0.83964000  1.0
  C  C108  1  0.76738000  0.15504000  0.82239000  1.0
  C  C109  1  0.82154000  0.11730000  0.81722000  1.0
  C  C110  1  0.82272000  0.06700000  0.83062000  1.0
  C  C111  1  0.76910000  0.07418000  0.84377000  1.0
  C  C112  1  0.67864000  0.13552000  0.82525000  1.0
  C  C113  1  0.70584000  0.15610000  0.86579000  1.0
  C  C114  1  0.95140000  0.53600000  0.47807000  1.0
  C  C115  1  0.96718000  0.58010000  0.47529000  1.0
  C  C116  1  0.92502000  0.63194000  0.47463000  1.0
  C  C117  1  0.86696000  0.63986000  0.47761000  1.0
  C  C118  1  0.74342000  0.63092000  0.49249000  1.0
  C  C119  1  0.69724000  0.61540000  0.50216000  1.0
  C  C120  1  0.70528000  0.56116000  0.50546000  1.0
  C  C121  1  0.75924000  0.52254000  0.49830000  1.0
  C  C122  1  0.86730000  0.50320000  0.48531000  1.0
  C  C123  1  0.89364000  0.54448000  0.48048000  1.0
  C  C124  1  0.85246000  0.59536000  0.48062000  1.0
  C  C125  1  0.79694000  0.59152000  0.48651500  1.0
  C  C126  1  0.80490000  0.53840000  0.48933000  1.0
  C  C127  1  0.88640000  0.46500000  0.51000500  1.0
  C  C128  1  0.88068000  0.47246000  0.46119000  1.0
  C  C129  1  0.23840000  0.15080000  0.18400000  1.0
  C  C130  1  0.29884000  0.13022000  0.18183000  1.0
  C  C131  1  0.32658000  0.16384000  0.18493000  1.0
  C  C132  1  0.29586000  0.21814000  0.18705000  1.0
  C  C133  1  0.20448000  0.33770000  0.19059000  1.0
  C  C134  1  0.15702000  0.38430000  0.19541000  1.0
  C  C135  1  0.10136000  0.38368000  0.20127000  1.0
  C  C136  1  0.09318000  0.33632000  0.19995000  1.0
  C  C137  1  0.14388000  0.23518000  0.19166000  1.0
  C  C138  1  0.20802000  0.20482000  0.18737000  1.0
  C  C139  1  0.23678000  0.23780000  0.18754000  1.0
  C  C140  1  0.19542000  0.29114000  0.19062000  1.0
  C  C141  1  0.14116000  0.29042000  0.19396000  1.0
  C  C142  1  0.11710000  0.21288000  0.21709000  1.0
  C  C143  1  0.11526000  0.23510000  0.16796000  1.0
  C  C144  1  0.92334000  0.78602000  0.43810000  1.0
  C  C145  1  0.97638000  0.79120000  0.42992000  1.0
  C  C146  1  0.97772000  0.83958000  0.41644000  1.0
  C  C147  1  0.92708000  0.88183000  0.41072000  1.0
  C  C148  1  0.80000000  0.96006000  0.39970000  1.0
  C  C149  1  0.74212000  0.98472000  0.39624000  1.0
  C  C150  1  0.70362000  0.95978000  0.40721000  1.0
  C  C151  1  0.72320000  0.90990000  0.42196000  1.0
  C  C152  1  0.81270000  0.83070000  0.43785000  1.0
  C  C153  1  0.87330000  0.82854000  0.43232000  1.0
  C  C154  1  0.87560000  0.87508000  0.41878000  1.0
  C  C155  1  0.81840000  0.91042000  0.41405000  1.0
  C  C156  1  0.78124000  0.88550000  0.42493000  1.0
  C  C157  1  0.79346000  0.82652000  0.46753000  1.0
  C  C158  1  0.80564000  0.78754000  0.42483000  1.0
  C  C159  1  0.52126000  0.14574000  0.14396000  1.0
  C  C160  1  0.47638000  0.12838000  0.14310000  1.0
  C  C161  1  0.42226000  0.16696000  0.13798000  1.0
  C  C162  1  0.41096000  0.22140000  0.13646500  1.0
  C  C163  1  0.40990000  0.33942000  0.13417000  1.0
  C  C164  1  0.42180000  0.38580000  0.12997000  1.0
  C  C165  1  0.47850000  0.38314000  0.12796000  1.0
  C  C166  1  0.52312000  0.33300000  0.13216000  1.0
  C  C167  1  0.55050000  0.22898000  0.14037000  1.0
  C  C168  1  0.50968000  0.20070000  0.14143000  1.0
  C  C169  1  0.45500000  0.23724000  0.13888000  1.0
  C  C170  1  0.45500000  0.29050000  0.13693000  1.0
  C  C171  1  0.51020000  0.28690000  0.13701000  1.0
  C  C172  1  0.59692000  0.21477000  0.11676000  1.0
  C  C173  1  0.57736000  0.21638000  0.16612000  1.0
  C  C174  1  0.85266000  0.46284000  0.78523000  1.0
  C  C175  1  0.80404000  0.50076000  0.79785000  1.0
  C  C176  1  0.81010000  0.54094000  0.80952000  1.0
  C  C177  1  0.86320000  0.54580000  0.80709000  1.0
  C  C178  1  0.99366000  0.53950000  0.79170000  1.0
  C  C179  1  0.05124000  0.52834000  0.78179000  1.0
  C  C180  1  0.08432000  0.48074000  0.77019000  1.0
  C  C181  1  0.05894000  0.44436000  0.76861000  1.0
  C  C182  1  0.96344000  0.42936000  0.77287000  1.0
  C  C183  1  0.90580000  0.46656000  0.78419000  1.0
  C  C184  1  0.91036000  0.50822000  0.79415000  1.0
  C  C185  1  0.96946000  0.50350000  0.78898000  1.0
  C  C186  1  0.00094000  0.45742000  0.77718000  1.0
  C  C187  1  0.96468000  0.42574000  0.74348000  1.0
  C  C188  1  0.98038000  0.37402000  0.78823000  1.0
  C  C189  1  0.30264000  0.27358000  0.46857000  1.0
  C  C190  1  0.29340000  0.32808000  0.46434000  1.0
  C  C191  1  0.33742000  0.34418000  0.45060000  1.0
  C  C192  1  0.38938000  0.30670000  0.44064000  1.0
  C  C193  1  0.49318000  0.20522000  0.41855000  1.0
  C  C194  1  0.52966000  0.15616000  0.40982000  1.0
  C  C195  1  0.51648000  0.11048000  0.41789000  1.0
  C  C196  1  0.46680000  0.11388000  0.43513000  1.0
  C  C197  1  0.37260000  0.17732000  0.45942000  1.0
  C  C198  1  0.35482000  0.23674000  0.45863000  1.0
  C  C199  1  0.39680000  0.25334000  0.44483000  1.0
  C  C200  1  0.44378000  0.20764000  0.43519000  1.0
  C  C201  1  0.43052000  0.16320000  0.44338000  1.0
  C  C202  1  0.33156000  0.16316000  0.44639000  1.0
  C  C203  1  0.37766000  0.15060000  0.48769000  1.0
  C  C204  1  0.47692000  0.77780000  0.15065000  1.0
  C  C205  1  0.52363000  0.79063000  0.15393000  1.0
  C  C206  1  0.57788000  0.74898000  0.15531000  1.0
  C  C207  1  0.58570000  0.69604000  0.15362000  1.0
  C  C208  1  0.57958000  0.58474000  0.14421000  1.0
  C  C209  1  0.56716000  0.54394000  0.13668000  1.0
  C  C210  1  0.51180000  0.55326000  0.13105000  1.0
  C  C211  1  0.46806000  0.60386000  0.13419000  1.0
  C  C212  1  0.44338000  0.70256000  0.14316000  1.0
  C  C213  1  0.48562000  0.72466000  0.14868000  1.0
  C  C214  1  0.53890000  0.68486000  0.15035000  1.0
  C  C215  1  0.53612000  0.63482000  0.14612000  1.0
  C  C216  1  0.48122000  0.64432000  0.14164000  1.0
  C  C217  1  0.41944000  0.72834000  0.11696000  1.0
  C  C218  1  0.39488000  0.70940000  0.16582000  1.0
  C  C219  1  0.51402000  0.46238000  0.78550000  1.0
  C  C220  1  0.54786000  0.43016000  0.80514000  1.0
  C  C221  1  0.52858000  0.39476000  0.82300000  1.0
  C  C222  1  0.47714000  0.38988000  0.82068000  1.0
  C  C223  1  0.36136000  0.39110000  0.80284000  1.0
  C  C224  1  0.31316000  0.39886000  0.79085000  1.0
  C  C225  1  0.29490000  0.44000000  0.77041000  1.0
  C  C226  1  0.32642000  0.47268000  0.76167000  1.0
  C  C227  1  0.41878000  0.48904000  0.76497000  1.0
  C  C228  1  0.46188000  0.45840000  0.78406000  1.0
  C  C229  1  0.44486000  0.42184000  0.80089000  1.0
  C  C230  1  0.39174000  0.42388000  0.79364000  1.0
  C  C231  1  0.37558000  0.46310000  0.77313000  1.0
  C  C232  1  0.44562000  0.48090000  0.73639000  1.0
  C  C233  1  0.39194000  0.54836000  0.76904000  1.0
  C  C234  1  0.58718000  0.48870000  0.93061000  1.0
  C  C235  1  0.55056000  0.51166000  0.91086000  1.0
  C  C236  1  0.49118000  0.53692000  0.91800000  1.0
  C  C237  1  0.46864000  0.53974000  0.94461000  1.0
  C  C238  1  0.44378000  0.53442000  0.00822000  1.0
  C  C239  1  0.44504000  0.52610000  0.03552000  1.0
  C  C240  1  0.49732000  0.49854000  0.04616000  1.0
  C  C241  1  0.54858000  0.47962000  0.02939000  1.0
  C  C242  1  0.59570000  0.47084000  0.98085000  1.0
  C  C243  1  0.56418000  0.49186000  0.95689000  1.0
  C  C244  1  0.50618000  0.51708000  0.96364000  1.0
  C  C245  1  0.49516000  0.51484000  0.99205000  1.0
  C  C246  1  0.54658000  0.48816000  0.00229000  1.0
  C  C247  1  0.63848000  0.49706000  0.98124000  1.0
  C  C248  1  0.62560000  0.41004000  0.98277000  1.0
  C  C249  1  0.19090000  0.47846000  0.57311000  1.0
  C  C250  1  0.17828000  0.44340000  0.56042000  1.0
  C  C251  1  0.17832000  0.39478000  0.57407000  1.0
  C  C252  1  0.19084000  0.38102000  0.60009000  1.0
  C  C253  1  0.21196000  0.37526000  0.65984000  1.0
  C  C254  1  0.21458000  0.38532000  0.68509000  1.0
  C  C255  1  0.21692000  0.43380000  0.68932000  1.0
  C  C256  1  0.21902000  0.47160000  0.66789000  1.0
  C  C257  1  0.21186000  0.49732000  0.61748000  1.0
  C  C258  1  0.20250000  0.46444000  0.59924000  1.0
  C  C259  1  0.20290000  0.41648000  0.61216000  1.0
  C  C260  1  0.21218000  0.41402000  0.63911000  1.0
  C  C261  1  0.21654000  0.46086000  0.64276000  1.0
  C  C262  1  0.16068000  0.55030000  0.62032000  1.0
  C  C263  1  0.26750000  0.50674000  0.60830000  1.0
  C  C264  1  0.51948000  0.96346000  0.24359000  1.0
  C  C265  1  0.47432000  0.95094000  0.23844000  1.0
  C  C266  1  0.43824000  0.93738000  0.25952000  1.0
  C  C267  1  0.44716000  0.93622000  0.28559000  1.0
  C  C268  1  0.48422000  0.94728000  0.34025000  1.0
  C  C269  1  0.50578000  0.95906000  0.36054000  1.0
  C  C270  1  0.54936000  0.97966000  0.35475000  1.0
  C  C271  1  0.57246000  0.98712000  0.32854000  1.0
  C  C272  1  0.56884000  0.98004000  0.27943000  1.0
  C  C273  1  0.52708000  0.96316000  0.26958000  1.0
  C  C274  1  0.49188000  0.94932000  0.29004000  1.0
  C  C275  1  0.50762000  0.95548000  0.31447000  1.0
  C  C276  1  0.55141000  0.97415000  0.30865000  1.0
  C  C277  1  0.56040000  0.03790000  0.26932000  1.0
  C  C278  1  0.63076000  0.94248000  0.27215000  1.0
  C  C279  1  0.06314000  0.56409000  0.37182000  1.0
  C  C280  1  0.09718000  0.59238000  0.37425000  1.0
  C  C281  1  0.12685000  0.60959000  0.35156000  1.0
  C  C282  1  0.12306000  0.59860000  0.32668000  1.0
  C  C283  1  0.09874000  0.56238000  0.27571000  1.0
  C  C284  1  0.08136000  0.54262000  0.25690000  1.0
  C  C285  1  0.04324000  0.51600000  0.26443000  1.0
  C  C286  1  0.02258000  0.50880000  0.29110000  1.0
  C  C287  1  0.02542000  0.52522000  0.33921000  1.0
  C  C288  1  0.05948000  0.55380000  0.34677000  1.0
  C  C289  1  0.08914000  0.57068000  0.32489000  1.0
  C  C290  1  0.07778000  0.55476000  0.30191000  1.0
  C  C291  1  0.04076000  0.52848000  0.30969000  1.0
  C  C292  1  0.96104000  0.55450000  0.34671000  1.0
  C  C293  1  0.04532000  0.46724000  0.35144000  1.0
  C  C294  1  0.62950000  0.92876000  0.05249000  1.0
  C  C295  1  0.65530000  0.92362000  0.07516000  1.0
  C  C296  1  0.71538000  0.90630000  0.07355000  1.0
  C  C297  1  0.74958000  0.89366000  0.04961000  1.0
  C  C298  1  0.80440000  0.87272000  0.98974000  1.0
  C  C299  1  0.81654000  0.86960000  0.96253000  1.0
  C  C300  1  0.77174000  0.88396000  0.94690000  1.0
  C  C301  1  0.71476000  0.90002000  0.95861000  1.0
  C  C302  1  0.64594000  0.92038000  0.00209000  1.0
  C  C303  1  0.66416000  0.91646000  0.02875000  1.0
  C  C304  1  0.72288000  0.89884000  0.02756000  1.0
  C  C305  1  0.74742000  0.88974000  0.00072000  1.0
  C  C306  1  0.70344000  0.90250000  0.98567000  1.0
  C  C307  1  0.60844000  0.97778000  0.99310000  1.0
  C  C308  1  0.61534000  0.88246000  0.00182000  1.0
  C  C309  1  0.65494000  0.43852000  0.70081000  1.0
  C  C310  1  0.70406000  0.40062000  0.71117000  1.0
  C  C311  1  0.74530000  0.36266000  0.69532000  1.0
  C  C312  1  0.73800000  0.36240000  0.66925000  1.0
  C  C313  1  0.70702000  0.38930000  0.61026000  1.0
  C  C314  1  0.68952000  0.41396000  0.58581000  1.0
  C  C315  1  0.64236000  0.46268000  0.58407000  1.0
  C  C316  1  0.61064000  0.48542000  0.60703000  1.0
  C  C317  1  0.60502000  0.47956000  0.65815000  1.0
  C  C318  1  0.64898000  0.43854000  0.67452000  1.0
  C  C319  1  0.68952000  0.40076000  0.65937000  1.0
  C  C320  1  0.67610000  0.41355000  0.63263000  1.0
  C  C321  1  0.62818000  0.45994000  0.63133000  1.0
  C  C322  1  0.60378000  0.53570000  0.65871000  1.0
  C  C323  1  0.54556000  0.47776000  0.66699000  1.0
  H  H324  1  0.59912000  0.69304000  0.84981000  1.0
  H  H325  1  0.72372000  0.64094000  0.78215000  1.0
  H  H326  1  0.77308000  0.69638000  0.79095000  1.0
  H  H327  1  0.81912000  0.74146000  0.81298000  1.0
  H  H328  1  0.84432000  0.79562000  0.83885000  1.0
  H  H329  1  0.67998000  0.83296000  0.88626000  1.0
  H  H330  1  0.61042000  0.71874000  0.89249000  1.0
  H  H331  1  0.63886000  0.75962000  0.90472000  1.0
  H  H332  1  0.68648000  0.69864000  0.89157000  1.0
  H  H333  1  0.55588000  0.79768000  0.86053000  1.0
  H  H334  1  0.59410000  0.83312000  0.83855000  1.0
  H  H335  1  0.58308000  0.83900000  0.87331000  1.0
  H  H336  1  0.25294000  0.58296000  0.50881000  1.0
  H  H337  1  0.30932000  0.49708000  0.43976000  1.0
  H  H338  1  0.40960000  0.48204000  0.44352000  1.0
  H  H339  1  0.50366000  0.47003000  0.45745000  1.0
  H  H340  1  0.58446000  0.46954000  0.47789000  1.0
  H  H341  1  0.46526000  0.57204000  0.53457000  1.0
  H  H342  1  0.30520000  0.56606000  0.54933000  1.0
  H  H343  1  0.37234000  0.56136000  0.55771000  1.0
  H  H344  1  0.36750000  0.50612000  0.54516000  1.0
  H  H345  1  0.29726000  0.65062000  0.51825000  1.0
  H  H346  1  0.35470000  0.64944000  0.49274000  1.0
  H  H347  1  0.36420000  0.64668000  0.52661000  1.0
  H  H348  1  0.67318000  0.74986000  0.19608000  1.0
  H  H349  1  0.75814000  0.82194000  0.13172000  1.0
  H  H350  1  0.84212000  0.73776000  0.12990000  1.0
  H  H351  1  0.92158000  0.65232000  0.13948000  1.0
  H  H352  1  0.99168000  0.57184000  0.16043000  1.0
  H  H353  1  0.85656000  0.55118000  0.21764000  1.0
  H  H354  1  0.68600000  0.64362000  0.20025000  1.0
  H  H355  1  0.74326000  0.58082000  0.20686000  1.0
  H  H356  1  0.73658000  0.61164000  0.17367000  1.0
  H  H357  1  0.71784000  0.68426000  0.23332000  1.0
  H  H358  1  0.79022000  0.68092000  0.22920000  1.0
  H  H359  1  0.77516000  0.62186000  0.23989000  1.0
  H  H360  1  0.71304000  0.23750000  0.81789000  1.0
  H  H361  1  0.88864000  0.19374000  0.78182000  1.0
  H  H362  1  0.90788000  0.10024000  0.79860000  1.0
  H  H363  1  0.91006000  0.01320000  0.82194000  1.0
  H  H364  1  0.89306000  0.93700000  0.84886000  1.0
  H  H365  1  0.71650000  0.03754000  0.86924000  1.0
  H  H366  1  0.65088000  0.17780000  0.82086000  1.0
  H  H367  1  0.65214000  0.11494000  0.83752000  1.0
  H  H368  1  0.69500000  0.11724000  0.80642000  1.0
  H  H369  1  0.67840000  0.19876000  0.86236000  1.0
  H  H370  1  0.74182000  0.15288000  0.87609000  1.0
  H  H371  1  0.68010000  0.13576000  0.87890000  1.0
  H  H372  1  0.98332000  0.49602000  0.47864000  1.0
  H  H373  1  0.93712000  0.66584000  0.47275000  1.0
  H  H374  1  0.83448000  0.67944000  0.47805000  1.0
  H  H375  1  0.73798000  0.67220000  0.49098000  1.0
  H  H376  1  0.65606000  0.64514000  0.50816000  1.0
  H  H377  1  0.76626000  0.48074000  0.50145000  1.0
  H  H378  1  0.93308000  0.44164000  0.50730000  1.0
  H  H379  1  0.86430000  0.43666000  0.51417000  1.0
  H  H380  1  0.87650000  0.48738000  0.52741000  1.0
  H  H381  1  0.92724000  0.44922000  0.45745000  1.0
  H  H382  1  0.86694000  0.50012000  0.44340000  1.0
  H  H383  1  0.85808000  0.44458000  0.46435000  1.0
  H  H384  1  0.21554000  0.12568000  0.18287000  1.0
  H  H385  1  0.37214000  0.14808000  0.18564000  1.0
  H  H386  1  0.31772000  0.24380000  0.18871000  1.0
  H  H387  1  0.24710000  0.33800000  0.18736000  1.0
  H  H388  1  0.16392000  0.42036000  0.19616000  1.0
  H  H389  1  0.05108000  0.33482000  0.20434000  1.0
  H  H390  1  0.12254000  0.17130000  0.21572000  1.0
  H  H391  1  0.07072000  0.23692000  0.22074000  1.0
  H  H392  1  0.13764000  0.21338000  0.23420000  1.0
  H  H393  1  0.12000000  0.19416000  0.16557000  1.0
  H  H394  1  0.13494000  0.25098000  0.14960000  1.0
  H  H395  1  0.06902000  0.26016000  0.17062000  1.0
  H  H396  1  0.92084000  0.74948000  0.44822000  1.0
  H  H397  1  0.01788000  0.84440000  0.40991000  1.0
  H  H398  1  0.92828000  0.91840000  0.39995000  1.0
  H  H399  1  0.82962000  0.97878000  0.39095000  1.0
  H  H400  1  0.72730000  0.02292000  0.38473000  1.0
  H  H401  1  0.69428000  0.89008000  0.43024000  1.0
  H  H402  1  0.81926000  0.78716000  0.47703000  1.0
  H  H403  1  0.74784000  0.83142000  0.47130000  1.0
  H  H404  1  0.79857000  0.85775000  0.47688000  1.0
  H  H405  1  0.83162000  0.74736000  0.43345000  1.0
  H  H406  1  0.81954000  0.79068000  0.40338000  1.0
  H  H407  1  0.76030000  0.79156000  0.42774000  1.0
  H  H408  1  0.56382000  0.11742000  0.14680000  1.0
  H  H409  1  0.38822000  0.15490000  0.13552000  1.0
  H  H410  1  0.36892000  0.25034000  0.13319000  1.0
  H  H411  1  0.36678000  0.34180000  0.13430000  1.0
  H  H412  1  0.38736000  0.42362000  0.12632000  1.0
  H  H413  1  0.56700000  0.32976000  0.13012000  1.0
  H  H414  1  0.62384000  0.17174000  0.11869000  1.0
  H  H415  1  0.62500000  0.23732000  0.11542000  1.0
  H  H416  1  0.57734000  0.22436000  0.09815000  1.0
  H  H417  1  0.60446000  0.17352000  0.16911000  1.0
  H  H418  1  0.54372000  0.22642000  0.18315000  1.0
  H  H419  1  0.60438000  0.23964000  0.16572000  1.0
  H  H420  1  0.84946000  0.43054000  0.77697000  1.0
  H  H421  1  0.77364000  0.56868000  0.82033000  1.0
  H  H422  1  0.86736000  0.57750000  0.81544000  1.0
  H  H423  1  0.96812000  0.57642000  0.80007000  1.0
  H  H424  1  0.06942000  0.55748000  0.78236000  1.0
  H  H425  1  0.08296000  0.40836000  0.75916000  1.0
  H  H426  1  0.93442000  0.40790000  0.74052000  1.0
  H  H427  1  0.00806000  0.40070000  0.73503000  1.0
  H  H428  1  0.95250000  0.46582000  0.73243000  1.0
  H  H429  1  0.95054000  0.35500000  0.78618000  1.0
  H  H430  1  0.97936000  0.37674000  0.80945000  1.0
  H  H431  1  0.02422000  0.34802000  0.78074000  1.0
  H  H432  1  0.26978000  0.26004000  0.47891000  1.0
  H  H433  1  0.33130000  0.38574000  0.44712000  1.0
  H  H434  1  0.42242000  0.31922000  0.42963000  1.0
  H  H435  1  0.50256000  0.24044000  0.41188500  1.0
  H  H436  1  0.56746000  0.15384000  0.39631000  1.0
  H  H437  1  0.45572000  0.07938000  0.44113000  1.0
  H  H438  1  0.28826000  0.17654000  0.45753000  1.0
  H  H439  1  0.34694000  0.11960000  0.44574000  1.0
  H  H440  1  0.32814000  0.18248000  0.42594000  1.0
  H  H441  1  0.33532000  0.16374000  0.49973000  1.0
  H  H442  1  0.40734000  0.16090000  0.49703000  1.0
  H  H443  1  0.39414000  0.10674000  0.48785000  1.0
  H  H444  1  0.43504000  0.80850000  0.14900000  1.0
  H  H445  1  0.61452000  0.75734000  0.15740000  1.0
  H  H446  1  0.62756000  0.66486000  0.15439000  1.0
  H  H447  1  0.62262000  0.57782000  0.14739000  1.0
  H  H448  1  0.60142000  0.50594000  0.13378000  1.0
  H  H449  1  0.42580000  0.61248000  0.12924000  1.0
  H  H450  1  0.39452000  0.77150000  0.11783000  1.0
  H  H451  1  0.39086000  0.71006000  0.11244000  1.0
  H  H452  1  0.45464000  0.72314000  0.10060000  1.0
  H  H453  1  0.36924000  0.75216000  0.16772000  1.0
  H  H454  1  0.41230000  0.69086000  0.18473000  1.0
  H  H455  1  0.36610000  0.69040000  0.16231000  1.0
  H  H456  1  0.52790000  0.48992000  0.77170000  1.0
  H  H457  1  0.55430000  0.36970000  0.83808000  1.0
  H  H458  1  0.46324000  0.36168000  0.83389000  1.0
  H  H459  1  0.37534000  0.35942000  0.81836000  1.0
  H  H460  1  0.29050000  0.37242000  0.79723000  1.0
  H  H461  1  0.31404000  0.50366000  0.74567000  1.0
  H  H462  1  0.47940000  0.49758000  0.73123000  1.0
  H  H463  1  0.41292000  0.50100000  0.72263000  1.0
  H  H464  1  0.46514000  0.43796000  0.73350000  1.0
  H  H465  1  0.42478000  0.56628000  0.76452000  1.0
  H  H466  1  0.37250000  0.55414000  0.78970000  1.0
  H  H467  1  0.35808000  0.56994000  0.75598000  1.0
  H  H468  1  0.63282000  0.46922000  0.92574000  1.0
  H  H469  1  0.46258000  0.55490000  0.90306000  1.0
  H  H470  1  0.42328000  0.55944000  0.95011000  1.0
  H  H471  1  0.40378000  0.55520000  0.00005000  1.0
  H  H472  1  0.40548000  0.54050000  0.04839000  1.0
  H  H473  1  0.58888000  0.45822000  0.03728000  1.0
  H  H474  1  0.67272000  0.48644000  0.96448000  1.0
  H  H475  1  0.65870000  0.48372000  0.99973000  1.0
  H  H476  1  0.61672000  0.54098000  0.97982000  1.0
  H  H477  1  0.65940000  0.39762000  0.96597000  1.0
  H  H478  1  0.59450000  0.39126000  0.98256000  1.0
  H  H479  1  0.64576000  0.39480000  0.00124000  1.0
  H  H480  1  0.19034000  0.51624000  0.56315000  1.0
  H  H481  1  0.16864000  0.36752000  0.56460000  1.0
  H  H482  1  0.19010000  0.34410000  0.61058000  1.0
  H  H483  1  0.20774000  0.33912000  0.65679000  1.0
  H  H484  1  0.21202000  0.35654000  0.70156000  1.0
  H  H485  1  0.21942000  0.50940000  0.67095000  1.0
  H  H486  1  0.15566000  0.57528000  0.60121000  1.0
  H  H487  1  0.16674000  0.57284000  0.63476000  1.0
  H  H488  1  0.12058000  0.54328000  0.62716000  1.0
  H  H489  1  0.26448000  0.53142000  0.58914000  1.0
  H  H490  1  0.30432000  0.46848000  0.60594000  1.0
  H  H491  1  0.27598000  0.52762000  0.62278000  1.0
  H  H492  1  0.54694000  0.97502000  0.22776000  1.0
  H  H493  1  0.40310000  0.92812000  0.25579000  1.0
  H  H494  1  0.41916000  0.92650000  0.30175000  1.0
  H  H495  1  0.44992000  0.93272000  0.34459000  1.0
  H  H496  1  0.48774000  0.95342000  0.38066000  1.0
  H  H497  1  0.60552000  0.00330000  0.32378000  1.0
  H  H498  1  0.57018000  0.04226000  0.24761000  1.0
  H  H499  1  0.58906000  0.05074000  0.27795000  1.0
  H  H500  1  0.51560000  0.06492000  0.27466000  1.0
  H  H501  1  0.64204000  0.94482000  0.25049000  1.0
  H  H502  1  0.63670000  0.90074000  0.27948000  1.0
  H  H503  1  0.66080000  0.95332000  0.28092000  1.0
  H  H504  1  0.03980000  0.55076000  0.38890000  1.0
  H  H505  1  0.15308000  0.63138000  0.35309000  1.0
  H  H506  1  0.14588000  0.61174000  0.30936000  1.0
  H  H507  1  0.12786000  0.58282000  0.26991000  1.0
  H  H508  1  0.09742000  0.54810000  0.23643000  1.0
  H  H509  1  0.99352000  0.48830000  0.29713000  1.0
  H  H510  1  0.95078000  0.55446000  0.36837000  1.0
  H  H511  1  0.93638000  0.53496000  0.33965000  1.0
  H  H512  1  0.94684000  0.59636000  0.33782000  1.0
  H  H513  1  0.03682000  0.46538000  0.37320000  1.0
  H  H514  1  0.09186000  0.44624000  0.34596000  1.0
  H  H515  1  0.02244000  0.44586000  0.34448000  1.0
  H  H516  1  0.58360000  0.94212000  0.05324000  1.0
  H  H517  1  0.73582000  0.90196000  0.09084000  1.0
  H  H518  1  0.79552000  0.88030000  0.04840000  1.0
  H  H519  1  0.83846000  0.86288000  0.00173000  1.0
  H  H520  1  0.86040000  0.85738000  0.95355000  1.0
  H  H521  1  0.68002000  0.91144000  0.94681000  1.0
  H  H522  1  0.56780000  0.99152000  0.00637000  1.0
  H  H523  1  0.59796000  0.98068000  0.97288000  1.0
  H  H524  1  0.63086000  0.00498000  0.99320000  1.0
  H  H525  1  0.57466000  0.89416000  0.01516000  1.0
  H  H526  1  0.64254000  0.84104000  0.00837000  1.0
  H  H527  1  0.60542000  0.88328000  0.98171000  1.0
  H  H528  1  0.62358000  0.46866000  0.71250000  1.0
  H  H529  1  0.78332000  0.33354000  0.70308000  1.0
  H  H530  1  0.77026000  0.33406000  0.65697000  1.0
  H  H531  1  0.74482000  0.35338000  0.61153000  1.0
  H  H532  1  0.71430000  0.39662000  0.56816000  1.0
  H  H533  1  0.57500000  0.52320000  0.60588000  1.0
  H  H534  1  0.58996000  0.54822000  0.67888000  1.0
  H  H535  1  0.57352000  0.56494000  0.64555000  1.0
  H  H536  1  0.64682000  0.53686000  0.65215000  1.0
  H  H537  1  0.53022000  0.48960000  0.68722000  1.0
  H  H538  1  0.54660000  0.43712000  0.66680000  1.0
  H  H539  1  0.51446000  0.50538000  0.65370000  1.0
  I  I540  1  0.17466000  0.47290000  0.81123000  1.0
  I  I541  1  0.08160000  0.49304000  0.70643000  1.0
  I  I542  1  0.33966000  0.40346000  0.71046000  1.0
  I  I543  1  0.45312000  0.09168000  0.37304000  1.0
  I  I544  1  0.67862000  0.89694000  0.36495000  1.0
  I  I545  1  0.63494000  0.05484000  0.44535000  1.0
  I  I546  1  0.48766000  0.38438000  0.06478000  1.0
  I  I547  1  0.49308000  0.45294000  0.17147000  1.0
  I  I548  1  0.51674000  0.59306000  0.06841000  1.0
  I  I549  1  0.60362000  0.58552000  0.46871000  1.0
  I  I550  1  0.73056000  0.52344000  0.56632000  1.0
  I  I551  1  0.53576000  0.44840000  0.56408000  1.0
  I  I552  1  0.00080000  0.44408000  0.16113000  1.0
  I  I553  1  0.12136000  0.39072000  0.26106000  1.0
  I  I554  1  0.93348000  0.60890000  0.24111000  1.0
  I  I555  1  0.77275000  0.77655000  0.92721000  1.0
  I  I556  1  0.77076000  0.92024000  0.82235000  1.0
  I  I557  1  0.80270000  0.98812000  0.92325000  1.0
  O  O558  1  0.76408000  0.38496000  0.74581000  1.0
  O  O559  1  0.67412000  0.41818000  0.75743000  1.0
  O  O560  1  0.64048000  0.42664000  0.78443000  1.0
  O  O561  1  0.73952000  0.31616000  0.79695000  1.0
  O  O562  1  0.62024000  0.43496000  0.82823000  1.0
  O  O563  1  0.83180000  0.29322000  0.77950000  1.0
  O  O564  1  0.54716000  0.53058000  0.86269000  1.0
  O  O565  1  0.63068000  0.49178000  0.87617000  1.0
  O  O566  1  0.72258000  0.48916000  0.82358000  1.0
  O  O567  1  0.62712000  0.59282000  0.83593000  1.0
  O  O568  1  0.73482000  0.48156000  0.78026000  1.0
  O  O569  1  0.64398000  0.60158000  0.79156000  1.0
  O  O570  1  0.14174000  0.43330000  0.52165000  1.0
  O  O571  1  0.17542000  0.49408000  0.51679000  1.0
  O  O572  1  0.18986000  0.52592000  0.49249000  1.0
  O  O573  1  0.22898000  0.41874000  0.46932000  1.0
  O  O574  1  0.19496000  0.56032000  0.45010000  1.0
  O  O575  1  0.19530000  0.35370000  0.48445000  1.0
  O  O576  1  0.12692000  0.63514000  0.40386000  1.0
  O  O577  1  0.08092000  0.58680000  0.42261000  1.0
  O  O578  1  0.05486000  0.58088000  0.45095000  1.0
  O  O579  1  0.02858000  0.70014000  0.44576000  1.0
  O  O580  1  0.05604000  0.54006000  0.49262000  1.0
  O  O581  1  0.07962000  0.74904000  0.42549000  1.0
  O  O582  1  0.63980000  0.93472000  0.12198000  1.0
  O  O583  1  0.56670000  0.94070000  0.10539000  1.0
  O  O584  1  0.56264000  0.85921000  0.15286000  1.0
  O  O585  1  0.61288000  0.85658000  0.15830000  1.0
  O  O586  1  0.46489000  0.88427000  0.15756000  1.0
  O  O587  1  0.67696000  0.88344000  0.17093000  1.0
  O  O588  1  0.41546000  0.96138000  0.20363000  1.0
  O  O589  1  0.50006000  0.95748000  0.19093000  1.0
  O  O590  1  0.43940000  0.05764000  0.15593000  1.0
  O  O591  1  0.38842000  0.05932000  0.16713000  1.0
  O  O592  1  0.53596000  0.03408000  0.14315000  1.0
  O  O593  1  0.30872000  0.03966000  0.17936000  1.0
  Tb  Tb594  1  0.73410000  0.40000000  0.78858000  1.0
  Tb  Tb595  1  0.62650000  0.51286000  0.83289000  1.0
  Tb  Tb596  1  0.14282000  0.47996000  0.48138000  1.0
  Tb  Tb597  1  0.11024000  0.62886000  0.44842000  1.0
  Tb  Tb598  1  0.55826000  0.94470000  0.14945000  1.0
  Tb  Tb599  1  0.44208000  0.97262000  0.15950000  1.0
