# generated using pymatgen
data_Cd8H57C82(N5O16)2
_symmetry_space_group_name_H-M   'P 1'
_cell_length_a   23.03605000
_cell_length_b   32.30300000
_cell_length_c   32.30300000
_cell_angle_alpha   89.99900000
_cell_angle_beta   90.00000000
_cell_angle_gamma   90.00000000
_symmetry_Int_Tables_number   1
_chemical_formula_structural   Cd8H57C82(N5O16)2
_chemical_formula_sum   'Cd16 H114 C164 N20 O64'
_cell_volume   24037.74519465
_cell_formula_units_Z   2
loop_
 _symmetry_equiv_pos_site_id
 _symmetry_equiv_pos_as_xyz
  1  'x, y, z'
loop_
 _atom_site_type_symbol
 _atom_site_label
 _atom_site_symmetry_multiplicity
 _atom_site_fract_x
 _atom_site_fract_y
 _atom_site_fract_z
 _atom_site_occupancy
  C  C0  1  0.00922000  0.99192000  0.51114000  1.0
  C  C1  1  0.95050000  0.00349000  0.50536000  1.0
  C  C2  1  0.90736000  0.98400000  0.52949000  1.0
  C  C3  1  0.92170000  0.95345000  0.55862000  1.0
  C  C4  1  0.97984000  0.94045000  0.56245000  1.0
  C  C5  1  0.02304000  0.96023000  0.53917000  1.0
  C  C6  1  0.94088000  0.44655000  0.06580000  1.0
  C  C7  1  0.88792000  0.45157000  0.04482000  1.0
  C  C8  1  0.88394000  0.47945000  0.01168000  1.0
  C  C9  1  0.93206000  0.50283000  0.99837000  1.0
  C  C10  1  0.98572000  0.49794000  0.01956000  1.0
  C  C11  1  0.98934000  0.46978000  0.05279000  1.0
  C  C12  1  0.72060000  0.80882000  0.55107000  1.0
  C  C13  1  0.67548000  0.65044000  0.46207000  1.0
  C  C14  1  0.53748000  0.73810000  0.51457000  1.0
  C  C15  1  0.66628000  0.67383000  0.60813000  1.0
  C  C16  1  0.72780000  0.48859000  0.20450000  1.0
  C  C17  1  0.66208000  0.41138000  0.34605000  1.0
  C  C18  1  0.53720000  0.49348000  0.26448000  1.0
  C  C19  1  0.68718000  0.55568000  0.33992000  1.0
  C  C20  1  0.76300000  0.15704000  0.49410000  1.0
  C  C21  1  0.70314000  0.31126000  0.58528000  1.0
  C  C22  1  0.57268000  0.21430000  0.53538000  1.0
  C  C23  1  0.68612000  0.28912000  0.44032000  1.0
  C  C24  1  0.77582000  0.47794000  0.83547000  1.0
  C  C25  1  0.67418000  0.55070000  0.70256000  1.0
  C  C26  1  0.57410000  0.46176000  0.79256000  1.0
  C  C27  1  0.71852000  0.40779000  0.70611000  1.0
  C  C28  1  0.12754000  0.77425000  0.52010000  1.0
  C  C29  1  0.21962000  0.64347000  0.59291000  1.0
  C  C30  1  0.32186000  0.72737000  0.49579000  1.0
  C  C31  1  0.17348000  0.64047000  0.45178000  1.0
  C  C32  1  0.12930000  0.42314000  0.21719000  1.0
  C  C33  1  0.19036000  0.51617000  0.36064000  1.0
  C  C34  1  0.32396000  0.46099000  0.26709000  1.0
  C  C35  1  0.21122000  0.37084000  0.34763000  1.0
  C  C36  1  0.16520000  0.15328000  0.55613000  1.0
  C  C37  1  0.23488000  0.28723000  0.47733000  1.0
  C  C38  1  0.35842000  0.21108000  0.56421000  1.0
  C  C39  1  0.20860000  0.28807000  0.62261000  1.0
  C  C40  1  0.16724000  0.51112000  0.86249000  1.0
  C  C41  1  0.22406000  0.41289000  0.71338000  1.0
  C  C42  1  0.35764000  0.47965000  0.79964000  1.0
  C  C43  1  0.22282000  0.55746000  0.72248000  1.0
  C  C44  1  0.75122000  0.66060000  0.40748000  1.0
  C  C45  1  0.68506000  0.60250000  0.40171000  1.0
  C  C46  1  0.70480000  0.63745000  0.42350000  1.0
  C  C47  1  0.71018000  0.59124000  0.36372000  1.0
  C  C48  1  0.75642000  0.61484000  0.34805000  1.0
  C  C49  1  0.77752000  0.64933000  0.36987000  1.0
  C  C50  1  0.73000000  0.29006000  0.36948000  1.0
  C  C51  1  0.67504000  0.34983000  0.39237000  1.0
  C  C52  1  0.69688000  0.30992000  0.40015000  1.0
  C  C53  1  0.68624000  0.36984000  0.35455000  1.0
  C  C54  1  0.71998000  0.34969000  0.32449000  1.0
  C  C55  1  0.74190000  0.30978000  0.33166000  1.0
  C  C56  1  0.78508000  0.30555000  0.63575000  1.0
  C  C57  1  0.71408000  0.36023000  0.64482000  1.0
  C  C58  1  0.73486000  0.32611000  0.62220000  1.0
  C  C59  1  0.74214000  0.37318000  0.68120000  1.0
  C  C60  1  0.79218000  0.35209000  0.69441000  1.0
  C  C61  1  0.81416000  0.31850000  0.67176000  1.0
  C  C62  1  0.71628000  0.67735000  0.67678000  1.0
  C  C63  1  0.67072000  0.61288000  0.65627000  1.0
  C  C64  1  0.68406000  0.65450000  0.64775000  1.0
  C  C65  1  0.68962000  0.59410000  0.69315000  1.0
  C  C66  1  0.72244000  0.61726000  0.72149000  1.0
  C  C67  1  0.73582000  0.65891000  0.71362000  1.0
  C  C68  1  0.16384000  0.66438000  0.65568000  1.0
  C  C69  1  0.22058000  0.60114000  0.65805000  1.0
  C  C70  1  0.20108000  0.63607000  0.63610000  1.0
  C  C71  1  0.20330000  0.59453000  0.69930000  1.0
  C  C72  1  0.16636000  0.62341000  0.71842000  1.0
  C  C73  1  0.14636000  0.65830000  0.69685000  1.0
  C  C74  1  0.09826000  0.62528000  0.39787000  1.0
  C  C75  1  0.17826000  0.57746000  0.40693000  1.0
  C  C76  1  0.14926000  0.61380000  0.41877000  1.0
  C  C77  1  0.15754000  0.55311000  0.37406000  1.0
  C  C78  1  0.10642000  0.56487000  0.35359000  1.0
  C  C79  1  0.07632000  0.60081000  0.36545000  1.0
  C  C80  1  0.17810000  0.26023000  0.41729000  1.0
  C  C81  1  0.22242000  0.32812000  0.41202000  1.0
  C  C82  1  0.21130000  0.29209000  0.43505000  1.0
  C  C83  1  0.20096000  0.33237000  0.37146000  1.0
  C  C84  1  0.16842000  0.29998000  0.35405000  1.0
  C  C85  1  0.15662000  0.26391000  0.37677000  1.0
  C  C86  1  0.14852000  0.35878000  0.72657000  1.0
  C  C87  1  0.21280000  0.35098000  0.66770000  1.0
  C  C88  1  0.19438000  0.37386000  0.70229000  1.0
  C  C89  1  0.18684000  0.31290000  0.65785000  1.0
  C  C90  1  0.14124000  0.29808000  0.68263000  1.0
  C  C91  1  0.12154000  0.32099000  0.71686000  1.0
  C  C92  1  0.77912000  0.91505000  0.57527000  1.0
  C  C93  1  0.81982000  0.83948000  0.54446000  1.0
  C  C94  1  0.83874000  0.90940000  0.56937000  1.0
  C  C95  1  0.85878000  0.87148000  0.55339000  1.0
  C  C96  1  0.76048000  0.84445000  0.55278000  1.0
  C  C97  1  0.74028000  0.88283000  0.56730000  1.0
  C  C98  1  0.78918000  0.48445000  0.09614000  1.0
  C  C99  1  0.78506000  0.43443000  0.16679000  1.0
  C  C100  1  0.81348000  0.44461000  0.09506000  1.0
  C  C101  1  0.81140000  0.41981000  0.13061000  1.0
  C  C102  1  0.76020000  0.47413000  0.16780000  1.0
  C  C103  1  0.76316000  0.49917000  0.13227000  1.0
  C  C104  1  0.83612000  0.05730000  0.46248000  1.0
  C  C105  1  0.85952000  0.12567000  0.51302000  1.0
  C  C106  1  0.88994000  0.06046000  0.48212000  1.0
  C  C107  1  0.90142000  0.09458000  0.50784000  1.0
  C  C108  1  0.80604000  0.12312000  0.49216000  1.0
  C  C109  1  0.79448000  0.08824000  0.46744000  1.0
  C  C110  1  0.89894000  0.48126000  0.91257000  1.0
  C  C111  1  0.81080000  0.53319000  0.88329000  1.0
  C  C112  1  0.88958000  0.51989000  0.93156000  1.0
  C  C113  1  0.84630000  0.54608000  0.91599000  1.0
  C  C114  1  0.81742000  0.49348000  0.86636000  1.0
  C  C115  1  0.86202000  0.46772000  0.88100000  1.0
  C  C116  1  0.06404000  0.84978000  0.59709000  1.0
  C  C117  1  0.05416000  0.83053000  0.51307000  1.0
  C  C118  1  0.02802000  0.87418000  0.57183000  1.0
  C  C119  1  0.02178000  0.86299000  0.52978000  1.0
  C  C120  1  0.09142000  0.80722000  0.53824000  1.0
  C  C121  1  0.09536000  0.81661000  0.58054000  1.0
  C  C122  1  0.04094000  0.39645000  0.12216000  1.0
  C  C123  1  0.03376000  0.44947000  0.19052000  1.0
  C  C124  1  0.99156000  0.42119000  0.12762000  1.0
  C  C125  1  0.98848000  0.44802000  0.16164000  1.0
  C  C126  1  0.08262000  0.42385000  0.18578000  1.0
  C  C127  1  0.08604000  0.39771000  0.15101000  1.0
  C  C128  1  0.10404000  0.04544000  0.54559000  1.0
  C  C129  1  0.10380000  0.11990000  0.50153000  1.0
  C  C130  1  0.07688000  0.04731000  0.50663000  1.0
  C  C131  1  0.07678000  0.08486000  0.48491000  1.0
  C  C132  1  0.13144000  0.11786000  0.54025000  1.0
  C  C133  1  0.13038000  0.08049000  0.56242000  1.0
  C  C134  1  0.07346000  0.48053000  0.95422000  1.0
  C  C135  1  0.11604000  0.55208000  0.91613000  1.0
  C  C136  1  0.06186000  0.51963000  0.97172000  1.0
  C  C137  1  0.08326000  0.55511000  0.95219000  1.0
  C  C138  1  0.12804000  0.51330000  0.89855000  1.0
  C  C139  1  0.10552000  0.47749000  0.91735000  1.0
  C  C140  1  0.48004000  0.79650000  0.48552000  1.0
  C  C141  1  0.43018000  0.73270000  0.50289000  1.0
  C  C142  1  0.48172000  0.75581000  0.50074000  1.0
  C  C143  1  0.37706000  0.75025000  0.49049000  1.0
  C  C144  1  0.37642000  0.79082000  0.47469000  1.0
  C  C145  1  0.42772000  0.81411000  0.47208000  1.0
  C  C146  1  0.47574000  0.49972000  0.20114000  1.0
  C  C147  1  0.42990000  0.47900000  0.26552000  1.0
  C  C148  1  0.47990000  0.49136000  0.24378000  1.0
  C  C149  1  0.37676000  0.47402000  0.24471000  1.0
  C  C150  1  0.37378000  0.48180000  0.20201000  1.0
  C  C151  1  0.42292000  0.49497000  0.18006000  1.0
  C  C152  1  0.52404000  0.15049000  0.56114000  1.0
  C  C153  1  0.46616000  0.21253000  0.55162000  1.0
  C  C154  1  0.52012000  0.19231000  0.54959000  1.0
  C  C155  1  0.41626000  0.19105000  0.56467000  1.0
  C  C156  1  0.42132000  0.14937000  0.57670000  1.0
  C  C157  1  0.47496000  0.12890000  0.57506000  1.0
  C  C158  1  0.41636000  0.46598000  0.86300000  1.0
  C  C159  1  0.46554000  0.46890000  0.79669000  1.0
  C  C160  1  0.41406000  0.47151000  0.81992000  1.0
  C  C161  1  0.51904000  0.46112000  0.81630000  1.0
  C  C162  1  0.52018000  0.45493000  0.85937000  1.0
  C  C163  1  0.46920000  0.45737000  0.88293000  1.0
  Cd  Cd164  1  0.65822000  0.75174000  0.55297000  1.0
  Cd  Cd165  1  0.62566000  0.67167000  0.52059000  1.0
  Cd  Cd166  1  0.66790000  0.51008000  0.25876000  1.0
  Cd  Cd167  1  0.62214000  0.47561000  0.33148000  1.0
  Cd  Cd168  1  0.69350000  0.21026000  0.49436000  1.0
  Cd  Cd169  1  0.65080000  0.28709000  0.52904000  1.0
  Cd  Cd170  1  0.70642000  0.45292000  0.78897000  1.0
  Cd  Cd171  1  0.64688000  0.48373000  0.71931000  1.0
  Cd  Cd172  1  0.18976000  0.72481000  0.49167000  1.0
  Cd  Cd173  1  0.24908000  0.65679000  0.52556000  1.0
  Cd  Cd174  1  0.20382000  0.42001000  0.26642000  1.0
  Cd  Cd175  1  0.24412000  0.45957000  0.33923000  1.0
  Cd  Cd176  1  0.22716000  0.20578000  0.57918000  1.0
  Cd  Cd177  1  0.27400000  0.27736000  0.54275000  1.0
  Cd  Cd178  1  0.23126000  0.51065000  0.80597000  1.0
  Cd  Cd179  1  0.27244000  0.47322000  0.73072000  1.0
  H  H180  1  0.06778000  0.95056000  0.54266000  1.0
  H  H181  1  0.86224000  0.99261000  0.52590000  1.0
  H  H182  1  0.03046000  0.46657000  0.06861000  1.0
  H  H183  1  0.84220000  0.48378000  0.99687000  1.0
  H  H184  1  0.77650000  0.60648000  0.31888000  1.0
  H  H185  1  0.76690000  0.68750000  0.42411000  1.0
  H  H186  1  0.64892000  0.58472000  0.41372000  1.0
  H  H187  1  0.81462000  0.68231000  0.32438000  1.0
  H  H188  1  0.85902000  0.65328000  0.34831000  1.0
  H  H189  1  0.83626000  0.69687000  0.37212000  1.0
  H  H190  1  0.72900000  0.36469000  0.29518000  1.0
  H  H191  1  0.74724000  0.25935000  0.37504000  1.0
  H  H192  1  0.64920000  0.36530000  0.41573000  1.0
  H  H193  1  0.80994000  0.30831000  0.29291000  1.0
  H  H194  1  0.75268000  0.28870000  0.27375000  1.0
  H  H195  1  0.78936000  0.26098000  0.30946000  1.0
  H  H196  1  0.81440000  0.36185000  0.72232000  1.0
  H  H197  1  0.80158000  0.27933000  0.61845000  1.0
  H  H198  1  0.67508000  0.37605000  0.63475000  1.0
  H  H199  1  0.88442000  0.30839000  0.71171000  1.0
  H  H200  1  0.73732000  0.60322000  0.75007000  1.0
  H  H201  1  0.72714000  0.70940000  0.67056000  1.0
  H  H202  1  0.64568000  0.59507000  0.63417000  1.0
  H  H203  1  0.80722000  0.66685000  0.74828000  1.0
  H  H204  1  0.74922000  0.68059000  0.77104000  1.0
  H  H205  1  0.77596000  0.71179000  0.73373000  1.0
  H  H206  1  0.15238000  0.61883000  0.75013000  1.0
  H  H207  1  0.14852000  0.69140000  0.63907000  1.0
  H  H208  1  0.24918000  0.57916000  0.64304000  1.0
  H  H209  1  0.12730000  0.69688000  0.74362000  1.0
  H  H210  1  0.07280000  0.67159000  0.72728000  1.0
  H  H211  1  0.09736000  0.71120000  0.69811000  1.0
  H  H212  1  0.08980000  0.54632000  0.32828000  1.0
  H  H213  1  0.07542000  0.65322000  0.40678000  1.0
  H  H214  1  0.21800000  0.56874000  0.42259000  1.0
  H  H215  1  0.00630000  0.63870000  0.35591000  1.0
  H  H216  1  0.99592000  0.58809000  0.34515000  1.0
  H  H217  1  0.03296000  0.61491000  0.31349000  1.0
  H  H218  1  0.15134000  0.30275000  0.32291000  1.0
  H  H219  1  0.16922000  0.23231000  0.43478000  1.0
  H  H220  1  0.24778000  0.35283000  0.42566000  1.0
  H  H221  1  0.14152000  0.22298000  0.33130000  1.0
  H  H222  1  0.08408000  0.24337000  0.34927000  1.0
  H  H223  1  0.11762000  0.20694000  0.37804000  1.0
  H  H224  1  0.12080000  0.26878000  0.67528000  1.0
  H  H225  1  0.13366000  0.37615000  0.75325000  1.0
  H  H226  1  0.24844000  0.36231000  0.64898000  1.0
  H  H227  1  0.08860000  0.30427000  0.77185000  1.0
  H  H228  1  0.05880000  0.27857000  0.73165000  1.0
  H  H229  1  0.04348000  0.32829000  0.74345000  1.0
  H  H230  1  0.89548000  0.92713000  0.61438000  1.0
  H  H231  1  0.90456000  0.86584000  0.54978000  1.0
  H  H232  1  0.69468000  0.88747000  0.57394000  1.0
  H  H233  1  0.76306000  0.94370000  0.58834000  1.0
  H  H234  1  0.83656000  0.81005000  0.53371000  1.0
  H  H235  1  0.80552000  0.42797000  0.03448000  1.0
  H  H236  1  0.82942000  0.38886000  0.13004000  1.0
  H  H237  1  0.74410000  0.52980000  0.13196000  1.0
  H  H238  1  0.78964000  0.50384000  0.06882000  1.0
  H  H239  1  0.78320000  0.41438000  0.19362000  1.0
  H  H240  1  0.96930000  0.04581000  0.45757000  1.0
  H  H241  1  0.94328000  0.09760000  0.52277000  1.0
  H  H242  1  0.75366000  0.08519000  0.45112000  1.0
  H  H243  1  0.82706000  0.03133000  0.44231000  1.0
  H  H244  1  0.86962000  0.15217000  0.53221000  1.0
  H  H245  1  0.96216000  0.54761000  0.95553000  1.0
  H  H246  1  0.83952000  0.57628000  0.92968000  1.0
  H  H247  1  0.86822000  0.43712000  0.86804000  1.0
  H  H248  1  0.93334000  0.46108000  0.92324000  1.0
  H  H249  1  0.77672000  0.55356000  0.87242000  1.0
  H  H250  1  0.01832000  0.92047000  0.61477000  1.0
  H  H251  1  0.99252000  0.87956000  0.50949000  1.0
  H  H252  1  0.12356000  0.79891000  0.60070000  1.0
  H  H253  1  0.06806000  0.85661000  0.62977000  1.0
  H  H254  1  0.04966000  0.82346000  0.48045000  1.0
  H  H255  1  0.93662000  0.38726000  0.08958000  1.0
  H  H256  1  0.95042000  0.46717000  0.16615000  1.0
  H  H257  1  0.12326000  0.37779000  0.14631000  1.0
  H  H258  1  0.04390000  0.37565000  0.09598000  1.0
  H  H259  1  0.02998000  0.46995000  0.21691000  1.0
  H  H260  1  0.08910000  0.98993000  0.48231000  1.0
  H  H261  1  0.05734000  0.08668000  0.45448000  1.0
  H  H262  1  0.15182000  0.07781000  0.59213000  1.0
  H  H263  1  0.10634000  0.01669000  0.56259000  1.0
  H  H264  1  0.10424000  0.14824000  0.48362000  1.0
  H  H265  1  0.06676000  0.52231000  0.03446000  1.0
  H  H266  1  0.07560000  0.58531000  0.96569000  1.0
  H  H267  1  0.11472000  0.44720000  0.90460000  1.0
  H  H268  1  0.05870000  0.45254000  0.96931000  1.0
  H  H269  1  0.13274000  0.58021000  0.90229000  1.0
  H  H270  1  0.33588000  0.80476000  0.46494000  1.0
  H  H271  1  0.51958000  0.81460000  0.48355000  1.0
  H  H272  1  0.43134000  0.70149000  0.51516000  1.0
  H  H273  1  0.44428000  0.87478000  0.47801000  1.0
  H  H274  1  0.38658000  0.86466000  0.44747000  1.0
  H  H275  1  0.45620000  0.85766000  0.43272000  1.0
  H  H276  1  0.33302000  0.47823000  0.18562000  1.0
  H  H277  1  0.51384000  0.50922000  0.18391000  1.0
  H  H278  1  0.43250000  0.47249000  0.29837000  1.0
  H  H279  1  0.38662000  0.52402000  0.13163000  1.0
  H  H280  1  0.40334000  0.47726000  0.12220000  1.0
  H  H281  1  0.45734000  0.51247000  0.12427000  1.0
  H  H282  1  0.38348000  0.13226000  0.58692000  1.0
  H  H283  1  0.56552000  0.13470000  0.55984000  1.0
  H  H284  1  0.46292000  0.24465000  0.54225000  1.0
  H  H285  1  0.52018000  0.07521000  0.58492000  1.0
  H  H286  1  0.45050000  0.06954000  0.56994000  1.0
  H  H287  1  0.46272000  0.08329000  0.61634000  1.0
  H  H288  1  0.56100000  0.44896000  0.87496000  1.0
  H  H289  1  0.37688000  0.46777000  0.88116000  1.0
  H  H290  1  0.46404000  0.47367000  0.76351000  1.0
  H  H291  1  0.51074000  0.44540000  0.93938000  1.0
  H  H292  1  0.88004000  0.27363000  0.66857000  1.0
  H  H293  1  0.43392000  0.45351000  0.94278000  1.0
  N  N294  1  0.82260000  0.67161000  0.35438000  1.0
  N  N295  1  0.77424000  0.29061000  0.30215000  1.0
  N  N296  1  0.86292000  0.29874000  0.68489000  1.0
  N  N297  1  0.76752000  0.68094000  0.74144000  1.0
  N  N298  1  0.11030000  0.68570000  0.71578000  1.0
  N  N299  1  0.02680000  0.61180000  0.34540000  1.0
  N  N300  1  0.12458000  0.23305000  0.35957000  1.0
  N  N301  1  0.07714000  0.30678000  0.74065000  1.0
  N  N302  1  0.87786000  0.93919000  0.58709000  1.0
  N  N303  1  0.83758000  0.42816000  0.05746000  1.0
  N  N304  1  0.93440000  0.03105000  0.47194000  1.0
  N  N305  1  0.92428000  0.53361000  0.96606000  1.0
  N  N306  1  0.99448000  0.90730000  0.59052000  1.0
  N  N307  1  0.94294000  0.41762000  0.09997000  1.0
  N  N308  1  0.05472000  0.01064000  0.48687000  1.0
  N  N309  1  0.03478000  0.52472000  0.01156000  1.0
  N  N310  1  0.42696000  0.85341000  0.45709000  1.0
  N  N311  1  0.41918000  0.50265000  0.13878000  1.0
  N  N312  1  0.47888000  0.08853000  0.58656000  1.0
  N  N313  1  0.47134000  0.45170000  0.92460000  1.0
  O  O314  1  0.64880000  0.65038000  0.57735000  1.0
  O  O315  1  0.54626000  0.69801000  0.51270000  1.0
  O  O316  1  0.57844000  0.76327000  0.52750000  1.0
  O  O317  1  0.67484000  0.80723000  0.57598000  1.0
  O  O318  1  0.72978000  0.77607000  0.52680000  1.0
  O  O319  1  0.67048000  0.71425000  0.60376000  1.0
  O  O320  1  0.63418000  0.62710000  0.47920000  1.0
  O  O321  1  0.68768000  0.68644000  0.48054000  1.0
  O  O322  1  0.65438000  0.52796000  0.35844000  1.0
  O  O323  1  0.54408000  0.47827000  0.30188000  1.0
  O  O324  1  0.58170000  0.50841000  0.24384000  1.0
  O  O325  1  0.70356000  0.52594000  0.20525000  1.0
  O  O326  1  0.71814000  0.46429000  0.23715000  1.0
  O  O327  1  0.69904000  0.55264000  0.30020000  1.0
  O  O328  1  0.62320000  0.42881000  0.37125000  1.0
  O  O329  1  0.67738000  0.43275000  0.31240000  1.0
  O  O330  1  0.66530000  0.31043000  0.47160000  1.0
  O  O331  1  0.57670000  0.25459000  0.53969000  1.0
  O  O332  1  0.61568000  0.19265000  0.51964000  1.0
  O  O333  1  0.71746000  0.15720000  0.46893000  1.0
  O  O334  1  0.76784000  0.18910000  0.51988000  1.0
  O  O335  1  0.69884000  0.24959000  0.44436000  1.0
  O  O336  1  0.65700000  0.33160000  0.57080000  1.0
  O  O337  1  0.71836000  0.27648000  0.56563000  1.0
  O  O338  1  0.68148000  0.43388000  0.68947000  1.0
  O  O339  1  0.57438000  0.47561000  0.75432000  1.0
  O  O340  1  0.62276000  0.45074000  0.81094000  1.0
  O  O341  1  0.75630000  0.43926000  0.83729000  1.0
  O  O342  1  0.75438000  0.50200000  0.80565000  1.0
  O  O343  1  0.73432000  0.41157000  0.74506000  1.0
  O  O344  1  0.63490000  0.53023000  0.68014000  1.0
  O  O345  1  0.69780000  0.53065000  0.73454000  1.0
  O  O346  1  0.21308000  0.62559000  0.47707000  1.0
  O  O347  1  0.32148000  0.69148000  0.51498000  1.0
  O  O348  1  0.27322000  0.74439000  0.48290000  1.0
  O  O349  1  0.14102000  0.77427000  0.48005000  1.0
  O  O350  1  0.15004000  0.74409000  0.54316000  1.0
  O  O351  1  0.15644000  0.67924000  0.45455000  1.0
  O  O352  1  0.25962000  0.61995000  0.57444000  1.0
  O  O353  1  0.19736000  0.67451000  0.57083000  1.0
  O  O354  1  0.23142000  0.40378000  0.36656000  1.0
  O  O355  1  0.31836000  0.46930000  0.30665000  1.0
  O  O356  1  0.28214000  0.44253000  0.24646000  1.0
  O  O357  1  0.17194000  0.39552000  0.21499000  1.0
  O  O358  1  0.13066000  0.44921000  0.24921000  1.0
  O  O359  1  0.19838000  0.37191000  0.30793000  1.0
  O  O360  1  0.23714000  0.50346000  0.38138000  1.0
  O  O361  1  0.17544000  0.49465000  0.32694000  1.0
  O  O362  1  0.24034000  0.30588000  0.59379000  1.0
  O  O363  1  0.35196000  0.24816000  0.54814000  1.0
  O  O364  1  0.31338000  0.19044000  0.57842000  1.0
  O  O365  1  0.18900000  0.15254000  0.59365000  1.0
  O  O366  1  0.17680000  0.18615000  0.53270000  1.0
  O  O367  1  0.19722000  0.24818000  0.62117000  1.0
  O  O368  1  0.27272000  0.31415000  0.49332000  1.0
  O  O369  1  0.22008000  0.25504000  0.50089000  1.0
  O  O370  1  0.24940000  0.52721000  0.70309000  1.0
  O  O371  1  0.34998000  0.46966000  0.76063000  1.0
  O  O372  1  0.31504000  0.49551000  0.82167000  1.0
  O  O373  1  0.20588000  0.54087000  0.85598000  1.0
  O  O374  1  0.16644000  0.48015000  0.83522000  1.0
  O  O375  1  0.21204000  0.55501000  0.76240000  1.0
  O  O376  1  0.26712000  0.42778000  0.69010000  1.0
  O  O377  1  0.20982000  0.43436000  0.74727000  1.0
