# generated using pymatgen
data_CuC8(N4O)2
_symmetry_space_group_name_H-M   'P 1'
_cell_length_a   16.61845000
_cell_length_b   40.25540000
_cell_length_c   40.25540000
_cell_angle_alpha   90.00000000
_cell_angle_beta   90.00000000
_cell_angle_gamma   90.00000000
_symmetry_Int_Tables_number   1
_chemical_formula_structural   CuC8(N4O)2
_chemical_formula_sum   'Cu16 C128 N128 O32'
_cell_volume   26930.15217793
_cell_formula_units_Z   16
loop_
 _symmetry_equiv_pos_site_id
 _symmetry_equiv_pos_as_xyz
  1  'x, y, z'
loop_
 _atom_site_type_symbol
 _atom_site_label
 _atom_site_symmetry_multiplicity
 _atom_site_fract_x
 _atom_site_fract_y
 _atom_site_fract_z
 _atom_site_occupancy
  C  C0  1  0.90954000  0.24482000  0.40884000  1.0
  C  C1  1  0.11082000  0.32005000  0.38872000  1.0
  C  C2  1  0.16420000  0.23431000  0.36932000  1.0
  C  C3  1  0.12088000  0.24874000  0.48199000  1.0
  C  C4  1  0.96594000  0.68206000  0.21550000  1.0
  C  C5  1  0.12314000  0.71134000  0.29958000  1.0
  C  C6  1  0.24266000  0.65664000  0.21792000  1.0
  C  C7  1  0.05748000  0.60666000  0.28423000  1.0
  C  C8  1  0.97284000  0.86276000  0.66489000  1.0
  C  C9  1  0.05172000  0.75815000  0.68111000  1.0
  C  C10  1  0.23554000  0.83529000  0.70655000  1.0
  C  C11  1  0.14056000  0.81397000  0.60127000  1.0
  C  C12  1  0.96088000  0.36851000  0.84170000  1.0
  C  C13  1  0.14510000  0.38017000  0.76179000  1.0
  C  C14  1  0.19802000  0.40585000  0.85939000  1.0
  C  C15  1  0.01556000  0.47441000  0.80700000  1.0
  C  C16  1  0.14958000  0.20678000  0.68571000  1.0
  C  C17  1  0.10714000  0.29416000  0.68070000  1.0
  C  C18  1  0.87214000  0.23097000  0.69164000  1.0
  C  C19  1  0.01858000  0.23574000  0.59284000  1.0
  C  C20  1  0.19924000  0.39796000  0.19909000  1.0
  C  C21  1  0.16992000  0.39720000  0.30110000  1.0
  C  C22  1  0.94186000  0.41178000  0.23955000  1.0
  C  C23  1  0.10136000  0.49497000  0.24635000  1.0
  C  C24  1  0.18752000  0.85576000  0.39096000  1.0
  C  C25  1  0.12238000  0.76107000  0.40799000  1.0
  C  C26  1  0.90620000  0.83586000  0.40345000  1.0
  C  C27  1  0.06566000  0.83668000  0.48828000  1.0
  C  C28  1  0.14940000  0.68939000  0.85138000  1.0
  C  C29  1  0.10374000  0.66615000  0.75398000  1.0
  C  C30  1  0.88488000  0.68944000  0.81511000  1.0
  C  C31  1  0.02824000  0.59147000  0.82944000  1.0
  C  C32  1  0.39824000  0.70074000  0.91099000  1.0
  C  C33  1  0.54542000  0.77868000  0.86255000  1.0
  C  C34  1  0.68502000  0.71499000  0.89738000  1.0
  C  C35  1  0.53698000  0.77144000  0.97625000  1.0
  C  C36  1  0.42698000  0.17849000  0.70354000  1.0
  C  C37  1  0.48128000  0.20459000  0.80133000  1.0
  C  C38  1  0.66704000  0.16688000  0.74605000  1.0
  C  C39  1  0.50506000  0.08469000  0.75666000  1.0
  C  C40  1  0.48104000  0.38966000  0.17360000  1.0
  C  C41  1  0.57242000  0.28471000  0.21504000  1.0
  C  C42  1  0.74100000  0.35363000  0.17652000  1.0
  C  C43  1  0.54542000  0.32922000  0.10398000  1.0
  C  C44  1  0.46916000  0.87720000  0.37470000  1.0
  C  C45  1  0.55366000  0.88177000  0.27544000  1.0
  C  C46  1  0.71678000  0.91183000  0.35505000  1.0
  C  C47  1  0.52438000  0.98300000  0.34211000  1.0
  C  C48  1  0.68856000  0.71230000  0.20065000  1.0
  C  C49  1  0.63196000  0.80151000  0.19334000  1.0
  C  C50  1  0.42912000  0.73050000  0.16441000  1.0
  C  C51  1  0.58938000  0.74116000  0.08965000  1.0
  C  C52  1  0.69894000  0.89272000  0.68817000  1.0
  C  C53  1  0.66116000  0.86273000  0.79273000  1.0
  C  C54  1  0.47034000  0.89493000  0.74219000  1.0
  C  C55  1  0.64302000  0.97993000  0.75226000  1.0
  C  C56  1  0.69234000  0.35656000  0.88413000  1.0
  C  C57  1  0.55436000  0.27386000  0.89353000  1.0
  C  C58  1  0.42686000  0.36050000  0.91626000  1.0
  C  C59  1  0.62740000  0.34409000  0.99053000  1.0
  C  C60  1  0.66198000  0.21307000  0.35617000  1.0
  C  C61  1  0.63172000  0.18159000  0.26963000  1.0
  C  C62  1  0.40732000  0.18385000  0.32923000  1.0
  C  C63  1  0.58374000  0.09950000  0.34938000  1.0
  C  C64  1  0.05674000  0.24938000  0.56391000  1.0
  C  C65  1  0.10080000  0.25500000  0.51608000  1.0
  C  C66  1  0.08892000  0.52320000  0.26749000  1.0
  C  C67  1  0.07008000  0.57140000  0.28382000  1.0
  C  C68  1  0.07174000  0.82123000  0.52031000  1.0
  C  C69  1  0.10382000  0.81151000  0.56910000  1.0
  C  C70  1  0.04494000  0.55918000  0.81600000  1.0
  C  C71  1  0.03974000  0.50863000  0.80645000  1.0
  C  C72  1  0.55068000  0.75362000  0.06032000  1.0
  C  C73  1  0.52804000  0.76662000  0.01139000  1.0
  C  C74  1  0.60546000  0.01054000  0.74258000  1.0
  C  C75  1  0.54666000  0.05590000  0.74450000  1.0
  C  C76  1  0.56186000  0.34398000  0.07226000  1.0
  C  C77  1  0.59732000  0.35041000  0.02334000  1.0
  C  C78  1  0.57844000  0.06600000  0.33743000  1.0
  C  C79  1  0.55300000  0.01571000  0.33433000  1.0
  C  C80  1  0.13998000  0.33401000  0.35822000  1.0
  C  C81  1  0.16562000  0.36732000  0.32045000  1.0
  C  C82  1  0.12694000  0.73709000  0.38170000  1.0
  C  C83  1  0.12710000  0.71563000  0.33492000  1.0
  C  C84  1  0.10276000  0.68737000  0.72535000  1.0
  C  C85  1  0.08006000  0.72700000  0.69388000  1.0
  C  C86  1  0.13260000  0.31175000  0.70985000  1.0
  C  C87  1  0.14900000  0.34886000  0.74484000  1.0
  C  C88  1  0.62782000  0.84591000  0.82097000  1.0
  C  C89  1  0.57842000  0.80957000  0.85116000  1.0
  C  C90  1  0.55186000  0.25927000  0.86104000  1.0
  C  C91  1  0.52074000  0.22920000  0.82130000  1.0
  C  C92  1  0.60578000  0.25269000  0.22238000  1.0
  C  C93  1  0.63144000  0.20819000  0.24595000  1.0
  C  C94  1  0.58318000  0.85203000  0.26005000  1.0
  C  C95  1  0.61714000  0.81743000  0.22462000  1.0
  C  C96  1  0.35188000  0.20725000  0.34335000  1.0
  C  C97  1  0.24692000  0.22905000  0.36056000  1.0
  C  C98  1  0.37460000  0.70354000  0.17049000  1.0
  C  C99  1  0.29354000  0.67189000  0.19348000  1.0
  C  C100  1  0.41412000  0.87694000  0.72199000  1.0
  C  C101  1  0.31262000  0.85134000  0.70655000  1.0
  C  C102  1  0.36700000  0.36690000  0.89140000  1.0
  C  C103  1  0.26812000  0.38645000  0.86688000  1.0
  C  C104  1  0.72188000  0.17921000  0.72143000  1.0
  C  C105  1  0.81070000  0.20673000  0.69801000  1.0
  C  C106  1  0.79330000  0.37926000  0.18864000  1.0
  C  C107  1  0.88058000  0.40425000  0.21560000  1.0
  C  C108  1  0.84910000  0.86228000  0.39944000  1.0
  C  C109  1  0.76706000  0.89495000  0.37859000  1.0
  C  C110  1  0.83000000  0.70735000  0.83600000  1.0
  C  C111  1  0.74352000  0.71836000  0.87139000  1.0
  C  C112  1  0.76834000  0.87573000  0.67550000  1.0
  C  C113  1  0.88654000  0.86273000  0.66556000  1.0
  C  C114  1  0.77732000  0.36247000  0.88210000  1.0
  C  C115  1  0.89316000  0.36768000  0.86379000  1.0
  C  C116  1  0.74490000  0.22150000  0.36145000  1.0
  C  C117  1  0.85178000  0.23518000  0.38417000  1.0
  C  C118  1  0.88980000  0.69859000  0.21874000  1.0
  C  C119  1  0.77014000  0.71163000  0.21234000  1.0
  C  C120  1  0.39082000  0.87491000  0.38951000  1.0
  C  C121  1  0.26934000  0.86567000  0.39653000  1.0
  C  C122  1  0.23196000  0.68592000  0.86120000  1.0
  C  C123  1  0.33928000  0.69079000  0.88692000  1.0
  C  C124  1  0.35528000  0.19670000  0.69560000  1.0
  C  C125  1  0.23556000  0.20895000  0.68808000  1.0
  C  C126  1  0.39738000  0.39836000  0.17211000  1.0
  C  C127  1  0.27582000  0.40191000  0.18309000  1.0
  Cu  Cu128  1  0.06912000  0.26090000  0.41835000  1.0
  Cu  Cu129  1  0.09930000  0.66396000  0.25145000  1.0
  Cu  Cu130  1  0.10400000  0.82122000  0.66738000  1.0
  Cu  Cu131  1  0.07332000  0.41085000  0.81499000  1.0
  Cu  Cu132  1  0.01854000  0.24011000  0.66092000  1.0
  Cu  Cu133  1  0.10290000  0.42665000  0.24637000  1.0
  Cu  Cu134  1  0.06288000  0.82307000  0.42128000  1.0
  Cu  Cu135  1  0.03230000  0.65831000  0.81483000  1.0
  Cu  Cu136  1  0.53648000  0.73752000  0.91707000  1.0
  Cu  Cu137  1  0.50696000  0.15317000  0.75726000  1.0
  Cu  Cu138  1  0.58158000  0.33582000  0.17009000  1.0
  Cu  Cu139  1  0.55994000  0.91684000  0.33379000  1.0
  Cu  Cu140  1  0.58978000  0.74616000  0.15784000  1.0
  Cu  Cu141  1  0.63018000  0.91196000  0.74696000  1.0
  Cu  Cu142  1  0.57646000  0.33296000  0.92663000  1.0
  Cu  Cu143  1  0.56624000  0.16436000  0.32955000  1.0
  N  N144  1  0.95620000  0.25270000  0.42954000  1.0
  N  N145  1  0.08670000  0.30878000  0.41393000  1.0
  N  N146  1  0.09610000  0.23863000  0.37657000  1.0
  N  N147  1  0.13756000  0.24359000  0.45392000  1.0
  N  N148  1  0.02864000  0.66848000  0.21282000  1.0
  N  N149  1  0.11990000  0.70789000  0.27047000  1.0
  N  N150  1  0.20130000  0.64370000  0.23798000  1.0
  N  N151  1  0.04712000  0.63569000  0.28464000  1.0
  N  N152  1  0.04392000  0.86292000  0.66437000  1.0
  N  N153  1  0.02902000  0.78387000  0.67056000  1.0
  N  N154  1  0.17220000  0.82198000  0.70702000  1.0
  N  N155  1  0.17092000  0.81597000  0.62773000  1.0
  N  N156  1  0.01660000  0.36908000  0.82349000  1.0
  N  N157  1  0.14160000  0.40597000  0.77569000  1.0
  N  N158  1  0.14036000  0.42193000  0.85335000  1.0
  N  N159  1  0.99488000  0.44633000  0.80743000  1.0
  N  N160  1  0.07876000  0.20510000  0.68373000  1.0
  N  N161  1  0.08610000  0.27972000  0.65668000  1.0
  N  N162  1  0.92218000  0.25120000  0.68661000  1.0
  N  N163  1  0.98720000  0.22459000  0.61669000  1.0
  N  N164  1  0.13606000  0.39490000  0.21220000  1.0
  N  N165  1  0.17294000  0.42177500  0.28510000  1.0
  N  N166  1  0.99152000  0.41793000  0.25963000  1.0
  N  N167  1  0.11176000  0.47184000  0.22880000  1.0
  N  N168  1  0.12006000  0.84760000  0.38660000  1.0
  N  N169  1  0.11824000  0.78098000  0.42948000  1.0
  N  N170  1  0.95278000  0.81394000  0.40668000  1.0
  N  N171  1  0.06062000  0.84962000  0.46202000  1.0
  N  N172  1  0.08146000  0.69216000  0.84319000  1.0
  N  N173  1  0.10420000  0.64870000  0.77757000  1.0
  N  N174  1  0.92950000  0.67469000  0.79766000  1.0
  N  N175  1  0.01416000  0.61789000  0.84084000  1.0
  N  N176  1  0.44702000  0.70899000  0.93068000  1.0
  N  N177  1  0.51780000  0.75322000  0.87166000  1.0
  N  N178  1  0.63682000  0.71214000  0.91876000  1.0
  N  N179  1  0.54408000  0.77546000  0.94732000  1.0
  N  N180  1  0.48572000  0.16354000  0.71059000  1.0
  N  N181  1  0.44736000  0.18442000  0.78527000  1.0
  N  N182  1  0.62240000  0.15667000  0.76649000  1.0
  N  N183  1  0.46994000  0.10804000  0.76695000  1.0
  N  N184  1  0.54988000  0.38240000  0.17468000  1.0
  N  N185  1  0.54486000  0.31108000  0.20905000  1.0
  N  N186  1  0.69878000  0.33231000  0.16637000  1.0
  N  N187  1  0.53198000  0.31719000  0.13016000  1.0
  N  N188  1  0.53374000  0.87919000  0.36260000  1.0
  N  N189  1  0.52932000  0.90626000  0.28810000  1.0
  N  N190  1  0.67566000  0.92580000  0.33562000  1.0
  N  N191  1  0.50056000  0.95612000  0.34861000  1.0
  N  N192  1  0.62148000  0.71304000  0.19096000  1.0
  N  N193  1  0.64370000  0.78822000  0.16763000  1.0
  N  N194  1  0.47314000  0.75296000  0.15931000  1.0
  N  N195  1  0.62156000  0.73071000  0.11364000  1.0
  N  N196  1  0.64204000  0.90667000  0.69889000  1.0
  N  N197  1  0.68922000  0.87640000  0.76949000  1.0
  N  N198  1  0.51614000  0.90984000  0.75897000  1.0
  N  N199  1  0.67456000  0.95493000  0.76044000  1.0
  N  N200  1  0.62236000  0.35173000  0.88596000  1.0
  N  N201  1  0.55612000  0.28549000  0.92047000  1.0
  N  N202  1  0.47534000  0.35553000  0.93714000  1.0
  N  N203  1  0.65196000  0.33898000  0.96347000  1.0
  N  N204  1  0.59376000  0.20604000  0.35187000  1.0
  N  N205  1  0.63130000  0.15986000  0.28933000  1.0
  N  N206  1  0.45216000  0.16439000  0.31740000  1.0
  N  N207  1  0.58816000  0.12705000  0.35933000  1.0
  N  N208  1  0.09162000  0.27954000  0.56293000  1.0
  N  N209  1  0.11979000  0.28313000  0.53237000  1.0
  N  N210  1  0.08602000  0.52162000  0.30086000  1.0
  N  N211  1  0.07396000  0.55242000  0.31130000  1.0
  N  N212  1  0.03242000  0.79331000  0.52895000  1.0
  N  N213  1  0.05296000  0.78709000  0.56013000  1.0
  N  N214  1  0.10324000  0.55292000  0.79364000  1.0
  N  N215  1  0.09988000  0.52062000  0.78752000  1.0
  N  N216  1  0.47642000  0.76695000  0.05995000  1.0
  N  N217  1  0.46196000  0.77527000  0.02868000  1.0
  N  N218  1  0.60038000  0.02131000  0.71099000  1.0
  N  N219  1  0.56270000  0.05028000  0.71222000  1.0
  N  N220  1  0.54828000  0.37614000  0.06504000  1.0
  N  N221  1  0.57090000  0.38025000  0.03377000  1.0
  N  N222  1  0.60804000  0.05576000  0.30804000  1.0
  N  N223  1  0.59176000  0.02361000  0.30605000  1.0
  N  N224  1  0.18064000  0.31672000  0.33503000  1.0
  N  N225  1  0.19700000  0.33802000  0.31088000  1.0
  N  N226  1  0.13890000  0.70438000  0.38650000  1.0
  N  N227  1  0.13902000  0.69065000  0.35660000  1.0
  N  N228  1  0.13906000  0.67998000  0.69639000  1.0
  N  N229  1  0.12460000  0.70533000  0.67629000  1.0
  N  N230  1  0.17858000  0.29843000  0.73395000  1.0
  N  N231  1  0.18904000  0.32216000  0.75632000  1.0
  N  N232  1  0.61832000  0.85996000  0.85105000  1.0
  N  N233  1  0.58666000  0.83674000  0.87035000  1.0
  N  N234  1  0.59976000  0.26845000  0.83568000  1.0
  N  N235  1  0.57978000  0.24925000  0.81026000  1.0
  N  N236  1  0.65840000  0.23667000  0.20264000  1.0
  N  N237  1  0.67480000  0.20823000  0.21771000  1.0
  N  N238  1  0.60986000  0.82536000  0.27696000  1.0
  N  N239  1  0.63154000  0.80324000  0.25431000  1.0
  N  N240  1  0.37262000  0.23777000  0.35400000  1.0
  N  N241  1  0.30552000  0.25170000  0.36502000  1.0
  N  N242  1  0.35418000  0.68070000  0.14757000  1.0
  N  N243  1  0.30248000  0.66045000  0.16228000  1.0
  N  N244  1  0.42644000  0.86936000  0.68982000  1.0
  N  N245  1  0.36156000  0.85297000  0.67995000  1.0
  N  N246  1  0.36374000  0.35140000  0.86180000  1.0
  N  N247  1  0.30052000  0.36390000  0.84612000  1.0
  N  N248  1  0.72836000  0.16673000  0.69052000  1.0
  N  N249  1  0.78508000  0.18433000  0.67554000  1.0
  N  N250  1  0.79588000  0.41027000  0.17619000  1.0
  N  N251  1  0.85158000  0.42626000  0.19345000  1.0
  N  N252  1  0.82418000  0.88212000  0.42432000  1.0
  N  N253  1  0.77178000  0.90301000  0.41098000  1.0
  N  N254  1  0.81836000  0.74040000  0.83438000  1.0
  N  N255  1  0.76310000  0.74744000  0.85702000  1.0
  N  N256  1  0.76494000  0.84832000  0.65641000  1.0
  N  N257  1  0.84050000  0.84002000  0.65003000  1.0
  N  N258  1  0.82366000  0.37063000  0.90828000  1.0
  N  N259  1  0.89770000  0.37395000  0.89658000  1.0
  N  N260  1  0.80092000  0.22196000  0.33730000  1.0
  N  N261  1  0.86924000  0.23071000  0.35182000  1.0
  N  N262  1  0.87636000  0.72437000  0.23931000  1.0
  N  N263  1  0.79990000  0.73270000  0.23521000  1.0
  N  N264  1  0.37408000  0.88441000  0.42082000  1.0
  N  N265  1  0.29646000  0.87851000  0.42530000  1.0
  N  N266  1  0.28612000  0.66722000  0.84481000  1.0
  N  N267  1  0.35472000  0.67034000  0.86125000  1.0
  N  N268  1  0.35446000  0.22896000  0.68683000  1.0
  N  N269  1  0.27794000  0.23678000  0.68200000  1.0
  N  N270  1  0.36490000  0.41756000  0.14824000  1.0
  N  N271  1  0.28726000  0.41983000  0.15526000  1.0
  O  O272  1  0.06204000  0.23409000  0.53525000  1.0
  O  O273  1  0.07920000  0.55369000  0.25676000  1.0
  O  O274  1  0.11576000  0.83263000  0.54481000  1.0
  O  O275  1  0.00558000  0.53213000  0.82403000  1.0
  O  O276  1  0.58292000  0.75328000  0.03060000  1.0
  O  O277  1  0.57264000  0.03162000  0.76336000  1.0
  O  O278  1  0.59202000  0.32795000  0.04681000  1.0
  O  O279  1  0.54450000  0.04158000  0.35378000  1.0
  O  O280  1  0.13044000  0.36512000  0.34949000  1.0
  O  O281  1  0.11958000  0.74427000  0.35009000  1.0
  O  O282  1  0.06632000  0.71622000  0.72408000  1.0
  O  O283  1  0.11410000  0.34272000  0.71631000  1.0
  O  O284  1  0.60350000  0.81495000  0.82077000  1.0
  O  O285  1  0.50312000  0.23518000  0.85245000  1.0
  O  O286  1  0.58882000  0.23540000  0.24905000  1.0
  O  O287  1  0.58736000  0.84740000  0.22788000  1.0
  O  O288  1  0.27478000  0.20166000  0.34725000  1.0
  O  O289  1  0.33762000  0.69836000  0.19879000  1.0
  O  O290  1  0.34440000  0.86598000  0.73250000  1.0
  O  O291  1  0.30850000  0.38847000  0.89476000  1.0
  O  O292  1  0.77222000  0.20380000  0.72628000  1.0
  O  O293  1  0.84512000  0.37530000  0.21286000  1.0
  O  O294  1  0.81434000  0.86995000  0.37124000  1.0
  O  O295  1  0.78422000  0.69357000  0.85863000  1.0
  O  O296  1  0.84278000  0.88478000  0.68129000  1.0
  O  O297  1  0.81944000  0.36059000  0.85464000  1.0
  O  O298  1  0.77554000  0.22957000  0.39034000  1.0
  O  O299  1  0.82492000  0.69058000  0.20205000  1.0
  O  O300  1  0.32686000  0.86335000  0.37436000  1.0
  O  O301  1  0.26402000  0.70051000  0.88711000  1.0
  O  O302  1  0.28252000  0.18418000  0.69650000  1.0
  O  O303  1  0.34314000  0.38860000  0.19365000  1.0
