# generated using pymatgen
data_AgC16(NCl2)4
_symmetry_space_group_name_H-M   'P 1'
_cell_length_a   19.02035000
_cell_length_b   46.74880000
_cell_length_c   46.74880000
_cell_angle_alpha   90.00000000
_cell_angle_beta   90.00000000
_cell_angle_gamma   90.00000000
_symmetry_Int_Tables_number   1
_chemical_formula_structural   AgC16(NCl2)4
_chemical_formula_sum   'Ag16 C256 N64 Cl128'
_cell_volume   41568.02964099
_cell_formula_units_Z   16
loop_
 _symmetry_equiv_pos_site_id
 _symmetry_equiv_pos_as_xyz
  1  'x, y, z'
loop_
 _atom_site_type_symbol
 _atom_site_label
 _atom_site_symmetry_multiplicity
 _atom_site_fract_x
 _atom_site_fract_y
 _atom_site_fract_z
 _atom_site_occupancy
  Ag  Ag0  1  0.08486000  0.24870000  0.41869000  1.0
  Ag  Ag1  1  0.08860000  0.66192000  0.24790000  1.0
  Ag  Ag2  1  0.08336000  0.82911000  0.65901000  1.0
  Ag  Ag3  1  0.08406000  0.41786000  0.82921000  1.0
  Ag  Ag4  1  0.08606000  0.24884000  0.66188000  1.0
  Ag  Ag5  1  0.08566000  0.41691000  0.24812000  1.0
  Ag  Ag6  1  0.08496000  0.82896000  0.41675000  1.0
  Ag  Ag7  1  0.08526000  0.65886000  0.82931000  1.0
  Ag  Ag8  1  0.58760000  0.74876000  0.91806000  1.0
  Ag  Ag9  1  0.58622000  0.16124000  0.74651000  1.0
  Ag  Ag10  1  0.58766000  0.32871000  0.15946000  1.0
  Ag  Ag11  1  0.58742000  0.91666000  0.32878000  1.0
  Ag  Ag12  1  0.58484000  0.74638000  0.16051000  1.0
  Ag  Ag13  1  0.58814000  0.91742000  0.74854000  1.0
  Ag  Ag14  1  0.58056000  0.32952000  0.91707000  1.0
  Ag  Ag15  1  0.58270000  0.16065000  0.33090000  1.0
  C  C16  1  0.06100000  0.29816000  0.38199000  1.0
  C  C17  1  0.21260000  0.21765000  0.40589000  1.0
  C  C18  1  0.08704000  0.26088000  0.47949000  1.0
  C  C19  1  0.97884000  0.21416000  0.39050000  1.0
  C  C20  1  0.04486000  0.69871000  0.29428000  1.0
  C  C21  1  0.22526000  0.66742000  0.22255000  1.0
  C  C22  1  0.10800000  0.59919000  0.25217000  1.0
  C  C23  1  0.97984000  0.69466000  0.21883000  1.0
  C  C24  1  0.11942000  0.78880000  0.70343000  1.0
  C  C25  1  0.19418000  0.86587000  0.67991000  1.0
  C  C26  1  0.07710000  0.81852000  0.59798000  1.0
  C  C27  1  0.93902000  0.84555000  0.66789000  1.0
  C  C28  1  0.04584000  0.37327000  0.78919000  1.0
  C  C29  1  0.22782000  0.40760000  0.84575000  1.0
  C  C30  1  0.10780000  0.47871000  0.81960000  1.0
  C  C31  1  0.96842000  0.39838000  0.86475000  1.0
  C  C32  1  0.12144000  0.29333000  0.70217000  1.0
  C  C33  1  0.94720000  0.22436000  0.66705000  1.0
  C  C34  1  0.08896000  0.25856000  0.59967000  1.0
  C  C35  1  0.18778000  0.21534000  0.69319000  1.0
  C  C36  1  0.08500000  0.36304000  0.27878000  1.0
  C  C37  1  0.95558000  0.40709000  0.21738000  1.0
  C  C38  1  0.07594000  0.47857000  0.26023000  1.0
  C  C39  1  0.23010000  0.40331000  0.23662000  1.0
  C  C40  1  0.11852000  0.78434000  0.37616000  1.0
  C  C41  1  0.94658000  0.85367000  0.41008000  1.0
  C  C42  1  0.08260000  0.81820000  0.47820000  1.0
  C  C43  1  0.19020000  0.86331000  0.38855000  1.0
  C  C44  1  0.10668000  0.70880000  0.79296000  1.0
  C  C45  1  0.94312000  0.67210000  0.84838000  1.0
  C  C46  1  0.05064000  0.59808000  0.82902000  1.0
  C  C47  1  0.22738000  0.67011000  0.84944000  1.0
  C  C48  1  0.57904000  0.77913000  0.86481000  1.0
  C  C49  1  0.73322000  0.73863000  0.90443000  1.0
  C  C50  1  0.57806000  0.75955000  0.97913000  1.0
  C  C51  1  0.45758000  0.71756000  0.90875000  1.0
  C  C52  1  0.57594000  0.21159000  0.78194000  1.0
  C  C53  1  0.73102000  0.17615000  0.73682000  1.0
  C  C54  1  0.56918000  0.09958000  0.75640000  1.0
  C  C55  1  0.46736000  0.17385000  0.71015000  1.0
  C  C56  1  0.55094000  0.28785000  0.20394000  1.0
  C  C57  1  0.72960000  0.33707000  0.17879000  1.0
  C  C58  1  0.61770000  0.32849000  0.09819000  1.0
  C  C59  1  0.46068000  0.36167000  0.17207000  1.0
  C  C60  1  0.55352000  0.86722000  0.29348000  1.0
  C  C61  1  0.73336000  0.90187000  0.33861000  1.0
  C  C62  1  0.60982000  0.97866000  0.32387000  1.0
  C  C63  1  0.45738000  0.90789000  0.36043000  1.0
  C  C64  1  0.59886000  0.77928000  0.21229000  1.0
  C  C65  1  0.43924000  0.73736000  0.17385000  1.0
  C  C66  1  0.59340000  0.75771000  0.09915000  1.0
  C  C67  1  0.70424000  0.71020000  0.17302000  1.0
  C  C68  1  0.60142000  0.86550000  0.78191000  1.0
  C  C69  1  0.44580000  0.90717000  0.72737000  1.0
  C  C70  1  0.55972000  0.97922000  0.74792000  1.0
  C  C71  1  0.73294000  0.90455000  0.73390000  1.0
  C  C72  1  0.61416000  0.29214000  0.86977000  1.0
  C  C73  1  0.43756000  0.34119000  0.90167000  1.0
  C  C74  1  0.56016000  0.31915000  0.97847000  1.0
  C  C75  1  0.70352000  0.36352000  0.90365000  1.0
  C  C76  1  0.58386000  0.21397000  0.29955000  1.0
  C  C77  1  0.43638000  0.17364000  0.33883000  1.0
  C  C78  1  0.60512000  0.09934000  0.32128000  1.0
  C  C79  1  0.70852000  0.17276000  0.36254000  1.0
  C  C80  1  0.08376000  0.25104000  0.56969000  1.0
  C  C81  1  0.02072000  0.25625000  0.55485000  1.0
  C  C82  1  0.02032000  0.25694000  0.52471000  1.0
  C  C83  1  0.14398000  0.24406000  0.52409000  1.0
  C  C84  1  0.14444000  0.24338000  0.55427000  1.0
  C  C85  1  0.08284000  0.25236000  0.50942000  1.0
  C  C86  1  0.07602000  0.50929000  0.25550000  1.0
  C  C87  1  0.05522000  0.52691000  0.27833000  1.0
  C  C88  1  0.06098000  0.55670000  0.27627000  1.0
  C  C89  1  0.10502000  0.55195000  0.22771000  1.0
  C  C90  1  0.09938000  0.52186000  0.22978000  1.0
  C  C91  1  0.08774000  0.56933000  0.25133000  1.0
  C  C92  1  0.08506000  0.82664000  0.50799000  1.0
  C  C93  1  0.02258000  0.83348000  0.52263000  1.0
  C  C94  1  0.02130000  0.83363000  0.55271000  1.0
  C  C95  1  0.14648000  0.82340000  0.55365000  1.0
  C  C96  1  0.14782000  0.82330000  0.52359000  1.0
  C  C97  1  0.08246000  0.82693000  0.56823000  1.0
  C  C98  1  0.06956000  0.56822000  0.82687000  1.0
  C  C99  1  0.06668000  0.55461000  0.80013000  1.0
  C  C100  1  0.07624000  0.52489000  0.79817000  1.0
  C  C101  1  0.09318000  0.52226000  0.84968000  1.0
  C  C102  1  0.08312000  0.55209000  0.85166000  1.0
  C  C103  1  0.09012000  0.50868000  0.82280000  1.0
  C  C104  1  0.58732000  0.75021000  0.06907000  1.0
  C  C105  1  0.64856000  0.74606000  0.05268000  1.0
  C  C106  1  0.64506000  0.74656000  0.02265000  1.0
  C  C107  1  0.51822000  0.75209000  0.02524000  1.0
  C  C108  1  0.52176000  0.75182000  0.05526000  1.0
  C  C109  1  0.58024000  0.75116000  0.00886000  1.0
  C  C110  1  0.57772000  0.00927000  0.74696000  1.0
  C  C111  1  0.55492000  0.02628000  0.72390000  1.0
  C  C112  1  0.55680000  0.05630000  0.72599000  1.0
  C  C113  1  0.61006000  0.05235000  0.77308000  1.0
  C  C114  1  0.60782000  0.02239000  0.77107000  1.0
  C  C115  1  0.58192000  0.06943000  0.75109000  1.0
  C  C116  1  0.59662000  0.32683000  0.06843000  1.0
  C  C117  1  0.59854000  0.35139000  0.05100000  1.0
  C  C118  1  0.58842000  0.34912000  0.02125000  1.0
  C  C119  1  0.57222000  0.29778000  0.02634000  1.0
  C  C120  1  0.58208000  0.30008000  0.05597000  1.0
  C  C121  1  0.57548000  0.32217000  0.00875000  1.0
  C  C122  1  0.59000000  0.06914000  0.32504000  1.0
  C  C123  1  0.61168000  0.05463000  0.34993000  1.0
  C  C124  1  0.61236000  0.02449000  0.35060000  1.0
  C  C125  1  0.56412000  0.02326000  0.30251000  1.0
  C  C126  1  0.56322000  0.05332000  0.30188000  1.0
  C  C127  1  0.59164000  0.00874000  0.32634000  1.0
  C  C128  1  0.07054000  0.31493000  0.35610000  1.0
  C  C129  1  0.11750000  0.30645000  0.33446000  1.0
  C  C130  1  0.12298000  0.32271000  0.30916000  1.0
  C  C131  1  0.03692000  0.35645000  0.32761000  1.0
  C  C132  1  0.03088000  0.34007000  0.35272000  1.0
  C  C133  1  0.08246000  0.34763000  0.30564000  1.0
  C  C134  1  0.09446000  0.76378000  0.35514000  1.0
  C  C135  1  0.10398000  0.76904000  0.32576000  1.0
  C  C136  1  0.08906000  0.74756000  0.30556000  1.0
  C  C137  1  0.05248000  0.71585000  0.34401000  1.0
  C  C138  1  0.06738000  0.73729000  0.36414000  1.0
  C  C139  1  0.06348000  0.72077000  0.31470000  1.0
  C  C140  1  0.09256000  0.72742000  0.76901000  1.0
  C  C141  1  0.10502000  0.71826000  0.74075000  1.0
  C  C142  1  0.10778000  0.73842000  0.71850000  1.0
  C  C143  1  0.08136000  0.77645000  0.75232000  1.0
  C  C144  1  0.07732000  0.75631000  0.77440000  1.0
  C  C145  1  0.09940000  0.76770000  0.72447000  1.0
  C  C146  1  0.09944000  0.31328000  0.72404000  1.0
  C  C147  1  0.07970000  0.30355000  0.75140000  1.0
  C  C148  1  0.06456000  0.32337000  0.77320000  1.0
  C  C149  1  0.08814000  0.36257000  0.74035000  1.0
  C  C150  1  0.10300000  0.34280000  0.71857000  1.0
  C  C151  1  0.06822000  0.35291000  0.76767000  1.0
  C  C152  1  0.59034000  0.84902000  0.80770000  1.0
  C  C153  1  0.52638000  0.83454000  0.81159000  1.0
  C  C154  1  0.52052000  0.81338000  0.83275000  1.0
  C  C155  1  0.64208000  0.82150000  0.84654000  1.0
  C  C156  1  0.64666000  0.84379000  0.82642000  1.0
  C  C157  1  0.57966000  0.80561000  0.84896000  1.0
  C  C158  1  0.60162000  0.26714000  0.85229000  1.0
  C  C159  1  0.53340000  0.25966000  0.84343000  1.0
  C  C160  1  0.52410000  0.23963000  0.82130000  1.0
  C  C161  1  0.64996000  0.23086000  0.82066000  1.0
  C  C162  1  0.65964000  0.25185000  0.84174000  1.0
  C  C163  1  0.58304000  0.22630000  0.80893000  1.0
  C  C164  1  0.56568000  0.26679000  0.22593000  1.0
  C  C165  1  0.51544000  0.24550000  0.23126000  1.0
  C  C166  1  0.52314000  0.22686000  0.25461000  1.0
  C  C167  1  0.63426000  0.24962000  0.26654000  1.0
  C  C168  1  0.62600000  0.26863000  0.24338000  1.0
  C  C169  1  0.58180000  0.22944000  0.27277000  1.0
  C  C170  1  0.56670000  0.84873000  0.26917000  1.0
  C  C171  1  0.63536000  0.83976000  0.26253000  1.0
  C  C172  1  0.64640000  0.81824000  0.24200000  1.0
  C  C173  1  0.52044000  0.81537000  0.23382000  1.0
  C  C174  1  0.50954000  0.83714000  0.25401000  1.0
  C  C175  1  0.58866000  0.80526000  0.22848000  1.0
  C  C176  1  0.38250000  0.18904000  0.35427000  1.0
  C  C177  1  0.39602000  0.20105000  0.38140000  1.0
  C  C178  1  0.34022000  0.21241000  0.39761000  1.0
  C  C179  1  0.25846000  0.20108000  0.35924000  1.0
  C  C180  1  0.31430000  0.19020000  0.34289000  1.0
  C  C181  1  0.27114000  0.21143000  0.38702000  1.0
  C  C182  1  0.38536000  0.72013000  0.18742000  1.0
  C  C183  1  0.40044000  0.70278000  0.21128000  1.0
  C  C184  1  0.34662000  0.68619000  0.22374000  1.0
  C  C185  1  0.26310000  0.70484000  0.18902000  1.0
  C  C186  1  0.31668000  0.72129000  0.17655000  1.0
  C  C187  1  0.27838000  0.68683000  0.21221000  1.0
  C  C188  1  0.38880000  0.88999000  0.71640000  1.0
  C  C189  1  0.33134000  0.88368000  0.73417000  1.0
  C  C190  1  0.26906000  0.87274000  0.72234000  1.0
  C  C191  1  0.32220000  0.87358000  0.67507000  1.0
  C  C192  1  0.38528000  0.88383000  0.68700000  1.0
  C  C193  1  0.26310000  0.86930000  0.69258000  1.0
  C  C194  1  0.38770000  0.35966000  0.88741000  1.0
  C  C195  1  0.33976000  0.37564000  0.90371000  1.0
  C  C196  1  0.28530000  0.39081000  0.89014000  1.0
  C  C197  1  0.32728000  0.37417000  0.84388000  1.0
  C  C198  1  0.38274000  0.35964000  0.85738000  1.0
  C  C199  1  0.27908000  0.38999000  0.86017000  1.0
  C  C200  1  0.78222000  0.18934000  0.71796000  1.0
  C  C201  1  0.81560000  0.17255000  0.69708000  1.0
  C  C202  1  0.87122000  0.18398000  0.68088000  1.0
  C  C203  1  0.85954000  0.22928000  0.70599000  1.0
  C  C204  1  0.80286000  0.21800000  0.72182000  1.0
  C  C205  1  0.89338000  0.21229000  0.68533000  1.0
  C  C206  1  0.78338000  0.35498000  0.19126000  1.0
  C  C207  1  0.84598000  0.34219000  0.20054000  1.0
  C  C208  1  0.90214000  0.35908000  0.21006000  1.0
  C  C209  1  0.83164000  0.40186000  0.20275000  1.0
  C  C210  1  0.77568000  0.38490000  0.19276000  1.0
  C  C211  1  0.89562000  0.38911000  0.21082000  1.0
  C  C212  1  0.89200000  0.86497000  0.39165000  1.0
  C  C213  1  0.90094000  0.86587000  0.36178000  1.0
  C  C214  1  0.84842000  0.87808000  0.34444000  1.0
  C  C215  1  0.77662000  0.88720000  0.38651000  1.0
  C  C216  1  0.82984000  0.87563000  0.40390000  1.0
  C  C217  1  0.78604000  0.88861000  0.35669000  1.0
  C  C218  1  0.89036000  0.68991000  0.86164000  1.0
  C  C219  1  0.90926000  0.71409000  0.87779000  1.0
  C  C220  1  0.85674000  0.73026000  0.89141000  1.0
  C  C221  1  0.76686000  0.69839000  0.87252000  1.0
  C  C222  1  0.81934000  0.68224000  0.85886000  1.0
  C  C223  1  0.78576000  0.72235000  0.88910000  1.0
  C  C224  1  0.78148000  0.88847000  0.71628000  1.0
  C  C225  1  0.80260000  0.89937000  0.68961000  1.0
  C  C226  1  0.85640000  0.88573000  0.67417000  1.0
  C  C227  1  0.86576000  0.84952000  0.71132000  1.0
  C  C228  1  0.81198000  0.86316000  0.72673000  1.0
  C  C229  1  0.88810000  0.86085000  0.68499000  1.0
  C  C230  1  0.76948000  0.36642000  0.88855000  1.0
  C  C231  1  0.83068000  0.35393000  0.89985000  1.0
  C  C232  1  0.89688000  0.36262000  0.88996000  1.0
  C  C233  1  0.84092000  0.39369000  0.85503000  1.0
  C  C234  1  0.77460000  0.38485000  0.86483000  1.0
  C  C235  1  0.90212000  0.38388000  0.86881000  1.0
  C  C236  1  0.77518000  0.18729000  0.36446000  1.0
  C  C237  1  0.83552000  0.17407000  0.35337000  1.0
  C  C238  1  0.90240000  0.18430000  0.36083000  1.0
  C  C239  1  0.84892000  0.22266000  0.38846000  1.0
  C  C240  1  0.78164000  0.21248000  0.38069000  1.0
  C  C241  1  0.90924000  0.20773000  0.37935000  1.0
  C  C242  1  0.90874000  0.69682000  0.20817000  1.0
  C  C243  1  0.89458000  0.69017000  0.17944000  1.0
  C  C244  1  0.82784000  0.69570000  0.16785000  1.0
  C  C245  1  0.78760000  0.71273000  0.21421000  1.0
  C  C246  1  0.85510000  0.70791000  0.22560000  1.0
  C  C247  1  0.77408000  0.70685000  0.18513000  1.0
  C  C248  1  0.39538000  0.89086000  0.36640000  1.0
  C  C249  1  0.34462000  0.88646000  0.34496000  1.0
  C  C250  1  0.27882000  0.87485000  0.35207000  1.0
  C  C251  1  0.31516000  0.87076000  0.40174000  1.0
  C  C252  1  0.38168000  0.88177000  0.39448000  1.0
  C  C253  1  0.26260000  0.86842000  0.38064000  1.0
  C  C254  1  0.27752000  0.68817000  0.86399000  1.0
  C  C255  1  0.27620000  0.69051000  0.89394000  1.0
  C  C256  1  0.33386000  0.70241000  0.90844000  1.0
  C  C257  1  0.39220000  0.71116000  0.86298000  1.0
  C  C258  1  0.33333667  0.70022000  0.84850000  1.0
  C  C259  1  0.39344000  0.71148000  0.89314000  1.0
  C  C260  1  0.39652000  0.18492000  0.70669000  1.0
  C  C261  1  0.37928000  0.21325000  0.71423000  1.0
  C  C262  1  0.31080000  0.22377000  0.70913000  1.0
  C  C263  1  0.27814000  0.17815000  0.68801000  1.0
  C  C264  1  0.34572000  0.16744000  0.69373000  1.0
  C  C265  1  0.26006000  0.20606000  0.69619000  1.0
  C  C266  1  0.39674000  0.36789000  0.18781000  1.0
  C  C267  1  0.38946000  0.36066000  0.21696000  1.0
  C  C268  1  0.33110000  0.37062000  0.23253000  1.0
  C  C269  1  0.28600000  0.39404000  0.18990000  1.0
  C  C270  1  0.34364000  0.38374000  0.17420000  1.0
  C  C271  1  0.28108000  0.38830000  0.21933000  1.0
  Cl  Cl272  1  0.94296000  0.26374000  0.57404000  1.0
  Cl  Cl273  1  0.94188000  0.26499000  0.50627000  1.0
  Cl  Cl274  1  0.22252000  0.23465000  0.57273000  1.0
  Cl  Cl275  1  0.22120000  0.23585000  0.50488000  1.0
  Cl  Cl276  1  0.02402000  0.51134000  0.31033000  1.0
  Cl  Cl277  1  0.03780000  0.57824000  0.30582000  1.0
  Cl  Cl278  1  0.12336000  0.50010000  0.20048000  1.0
  Cl  Cl279  1  0.13658000  0.56783000  0.19593000  1.0
  Cl  Cl280  1  0.94468000  0.84013000  0.50319000  1.0
  Cl  Cl281  1  0.94188000  0.84045000  0.57104000  1.0
  Cl  Cl282  1  0.22762000  0.81707000  0.50535000  1.0
  Cl  Cl283  1  0.22458000  0.81728000  0.57312000  1.0
  Cl  Cl284  1  0.05002000  0.57473000  0.76890000  1.0
  Cl  Cl285  1  0.07172000  0.50795000  0.76446000  1.0
  Cl  Cl286  1  0.08662000  0.56917000  0.88534000  1.0
  Cl  Cl287  1  0.11034000  0.50212000  0.88085000  1.0
  Cl  Cl288  1  0.73038000  0.74172000  0.06996000  1.0
  Cl  Cl289  1  0.72264000  0.74301000  0.00218000  1.0
  Cl  Cl290  1  0.44394000  0.75496000  0.07561000  1.0
  Cl  Cl291  1  0.43612000  0.75531000  0.00787000  1.0
  Cl  Cl292  1  0.52000000  0.00981000  0.69300000  1.0
  Cl  Cl293  1  0.52438000  0.07747000  0.69763000  1.0
  Cl  Cl294  1  0.63896000  0.00117000  0.79964000  1.0
  Cl  Cl295  1  0.64486000  0.06864000  0.80404000  1.0
  Cl  Cl296  1  0.61480000  0.38516000  0.06664000  1.0
  Cl  Cl297  1  0.59180000  0.38005000  0.99961000  1.0
  Cl  Cl298  1  0.57722000  0.26920000  0.07762000  1.0
  Cl  Cl299  1  0.55526000  0.26397000  0.01088000  1.0
  Cl  Cl300  1  0.64136000  0.07427000  0.37985000  1.0
  Cl  Cl301  1  0.64296000  0.00639000  0.38132000  1.0
  Cl  Cl302  1  0.53188000  0.07136000  0.27126000  1.0
  Cl  Cl303  1  0.53436000  0.00371000  0.27256000  1.0
  Cl  Cl304  1  0.16986000  0.27560000  0.33878000  1.0
  Cl  Cl305  1  0.17942000  0.31138000  0.28142000  1.0
  Cl  Cl306  1  0.97294000  0.35104000  0.38014000  1.0
  Cl  Cl307  1  0.98590000  0.38774000  0.32364000  1.0
  Cl  Cl308  1  0.13596000  0.80255000  0.31424000  1.0
  Cl  Cl309  1  0.10242000  0.75427000  0.26877000  1.0
  Cl  Cl310  1  0.05332000  0.73069000  0.40088000  1.0
  Cl  Cl311  1  0.01948000  0.68247000  0.35557000  1.0
  Cl  Cl312  1  0.12110000  0.68176000  0.73357000  1.0
  Cl  Cl313  1  0.12590000  0.72720000  0.68317000  1.0
  Cl  Cl314  1  0.05742000  0.76750000  0.80960000  1.0
  Cl  Cl315  1  0.06814000  0.81300000  0.75994000  1.0
  Cl  Cl316  1  0.07460000  0.26651000  0.75847000  1.0
  Cl  Cl317  1  0.04008000  0.31114000  0.80755000  1.0
  Cl  Cl318  1  0.12704000  0.35508000  0.68420000  1.0
  Cl  Cl319  1  0.09378000  0.39961000  0.73325000  1.0
  Cl  Cl320  1  0.45464000  0.84151000  0.78882000  1.0
  Cl  Cl321  1  0.43958000  0.79567000  0.83796000  1.0
  Cl  Cl322  1  0.72390000  0.86453000  0.82424000  1.0
  Cl  Cl323  1  0.71594000  0.81264000  0.86763000  1.0
  Cl  Cl324  1  0.45924000  0.27526000  0.85981000  1.0
  Cl  Cl325  1  0.43898000  0.23202000  0.80837000  1.0
  Cl  Cl326  1  0.74502000  0.25983000  0.85422000  1.0
  Cl  Cl327  1  0.72254000  0.21065000  0.80882000  1.0
  Cl  Cl328  1  0.44030000  0.24292000  0.20916000  1.0
  Cl  Cl329  1  0.45772000  0.20109000  0.26166000  1.0
  Cl  Cl330  1  0.68976000  0.29527000  0.23726000  1.0
  Cl  Cl331  1  0.70952000  0.25189000  0.28860000  1.0
  Cl  Cl332  1  0.70784000  0.85443000  0.28074000  1.0
  Cl  Cl333  1  0.73256000  0.80649000  0.23425000  1.0
  Cl  Cl334  1  0.42340000  0.84896000  0.26126000  1.0
  Cl  Cl335  1  0.44758000  0.79987000  0.21633000  1.0
  Cl  Cl336  1  0.48216000  0.20104000  0.39546000  1.0
  Cl  Cl337  1  0.35652000  0.22678000  0.43193000  1.0
  Cl  Cl338  1  0.29826000  0.17680000  0.30815000  1.0
  Cl  Cl339  1  0.17226000  0.20028000  0.34534000  1.0
  Cl  Cl340  1  0.48634000  0.70157000  0.22558000  1.0
  Cl  Cl341  1  0.36508000  0.66425000  0.25355000  1.0
  Cl  Cl342  1  0.29756000  0.74337000  0.14689000  1.0
  Cl  Cl343  1  0.17698000  0.70656000  0.17507000  1.0
  Cl  Cl344  1  0.33452000  0.89200000  0.77099000  1.0
  Cl  Cl345  1  0.19686000  0.86514000  0.74471000  1.0
  Cl  Cl346  1  0.45808000  0.89096000  0.66470000  1.0
  Cl  Cl347  1  0.31606000  0.86779000  0.63784000  1.0
  Cl  Cl348  1  0.34776000  0.37671000  0.94135000  1.0
  Cl  Cl349  1  0.22552000  0.41104000  0.91075000  1.0
  Cl  Cl350  1  0.44642000  0.34201000  0.83641000  1.0
  Cl  Cl351  1  0.31884000  0.37279000  0.80626000  1.0
  Cl  Cl352  1  0.78806000  0.13698000  0.69114000  1.0
  Cl  Cl353  1  0.91268000  0.16270000  0.65464000  1.0
  Cl  Cl354  1  0.75740000  0.24022000  0.74604000  1.0
  Cl  Cl355  1  0.88740000  0.26483000  0.71195000  1.0
  Cl  Cl356  1  0.85510000  0.30457000  0.19917000  1.0
  Cl  Cl357  1  0.98134000  0.34216000  0.21960000  1.0
  Cl  Cl358  1  0.69684000  0.40125000  0.18139000  1.0
  Cl  Cl359  1  0.82256000  0.43944000  0.20422000  1.0
  Cl  Cl360  1  0.97800000  0.85195000  0.34594000  1.0
  Cl  Cl361  1  0.86238000  0.88113000  0.30724000  1.0
  Cl  Cl362  1  0.81896000  0.87471000  0.44143000  1.0
  Cl  Cl363  1  0.69888000  0.90047000  0.40231000  1.0
  Cl  Cl364  1  0.99840000  0.72396000  0.88134000  1.0
  Cl  Cl365  1  0.88010000  0.76061000  0.91181000  1.0
  Cl  Cl366  1  0.79604000  0.65184000  0.83845000  1.0
  Cl  Cl367  1  0.67782000  0.68837000  0.86894000  1.0
  Cl  Cl368  1  0.76184000  0.93023000  0.67554000  1.0
  Cl  Cl369  1  0.88316000  0.89963000  0.64077000  1.0
  Cl  Cl370  1  0.78300000  0.84815000  0.75922000  1.0
  Cl  Cl371  1  0.90382000  0.81777000  0.72471000  1.0
  Cl  Cl372  1  0.82440000  0.32845000  0.92759000  1.0
  Cl  Cl373  1  0.97398000  0.34813000  0.90522000  1.0
  Cl  Cl374  1  0.69746000  0.39801000  0.84845000  1.0
  Cl  Cl375  1  0.84740000  0.41825000  0.82644000  1.0
  Cl  Cl376  1  0.82792000  0.14373000  0.33118000  1.0
  Cl  Cl377  1  0.97830000  0.16674000  0.34795000  1.0
  Cl  Cl378  1  0.70540000  0.23060000  0.39235000  1.0
  Cl  Cl379  1  0.85682000  0.25333000  0.41027000  1.0
  Cl  Cl380  1  0.96106000  0.67531000  0.15769000  1.0
  Cl  Cl381  1  0.81136000  0.68818000  0.13143000  1.0
  Cl  Cl382  1  0.87250000  0.71632000  0.26178000  1.0
  Cl  Cl383  1  0.72046000  0.72533000  0.23695000  1.0
  Cl  Cl384  1  0.36124000  0.89741000  0.30954000  1.0
  Cl  Cl385  1  0.21454000  0.87010000  0.32523000  1.0
  Cl  Cl386  1  0.44690000  0.88573000  0.42109000  1.0
  Cl  Cl387  1  0.29664000  0.86132000  0.43750000  1.0
  Cl  Cl388  1  0.20378000  0.67726000  0.91342000  1.0
  Cl  Cl389  1  0.33329667  0.70439000  0.94617000  1.0
  Cl  Cl390  1  0.33112000  0.70020000  0.81071000  1.0
  Cl  Cl391  1  0.46568000  0.72232000  0.84299000  1.0
  Cl  Cl392  1  0.44302000  0.23606000  0.72941000  1.0
  Cl  Cl393  1  0.28904000  0.25903000  0.71937000  1.0
  Cl  Cl394  1  0.36686000  0.13195000  0.68412000  1.0
  Cl  Cl395  1  0.21568000  0.15619000  0.67077000  1.0
  Cl  Cl396  1  0.45460000  0.34055000  0.23470000  1.0
  Cl  Cl397  1  0.32260000  0.36214000  0.26919000  1.0
  Cl  Cl398  1  0.35120000  0.39201000  0.13745000  1.0
  Cl  Cl399  1  0.22174000  0.41527000  0.17286000  1.0
  N  N400  1  0.04690000  0.28706000  0.40397000  1.0
  N  N401  1  0.16678000  0.22045000  0.42262000  1.0
  N  N402  1  0.03770000  0.21519000  0.39835000  1.0
  N  N403  1  0.09150000  0.27085000  0.45640000  1.0
  N  N404  1  0.02606000  0.68022000  0.27872000  1.0
  N  N405  1  0.18278000  0.65053000  0.23005000  1.0
  N  N406  1  0.03884000  0.69485000  0.22697000  1.0
  N  N407  1  0.13318000  0.62225000  0.25495000  1.0
  N  N408  1  0.14238000  0.80570000  0.68715000  1.0
  N  N409  1  0.13700000  0.86546000  0.66993000  1.0
  N  N410  1  0.97714000  0.83253000  0.65278000  1.0
  N  N411  1  0.07096000  0.80826000  0.62093000  1.0
  N  N412  1  0.02350000  0.38958000  0.80623000  1.0
  N  N413  1  0.19040000  0.42311000  0.83285000  1.0
  N  N414  1  0.02220000  0.41103000  0.86441000  1.0
  N  N415  1  0.12758000  0.45523000  0.81445000  1.0
  N  N416  1  0.14424000  0.27818000  0.68416000  1.0
  N  N417  1  0.98878000  0.23363000  0.65060000  1.0
  N  N418  1  0.12728000  0.22137000  0.69168000  1.0
  N  N419  1  0.09456000  0.26887000  0.62290000  1.0
  N  N420  1  0.08758000  0.37376000  0.25582000  1.0
  N  N421  1  0.00256000  0.42334000  0.22084000  1.0
  N  N422  1  0.19264000  0.41672000  0.25167000  1.0
  N  N423  1  0.07364000  0.45493000  0.26945000  1.0
  N  N424  1  0.14258000  0.80017000  0.39327000  1.0
  N  N425  1  0.98796000  0.84514000  0.42696000  1.0
  N  N426  1  0.12938000  0.86145000  0.39374000  1.0
  N  N427  1  0.07950000  0.80773000  0.45509000  1.0
  N  N428  1  0.12498000  0.69654000  0.81375000  1.0
  N  N429  1  0.97944000  0.65510000  0.83695000  1.0
  N  N430  1  0.19124000  0.65405000  0.83650000  1.0
  N  N431  1  0.02810000  0.62162000  0.83062000  1.0
  N  N432  1  0.57900000  0.75611000  0.87534000  1.0
  N  N433  1  0.69458000  0.75304000  0.91806000  1.0
  N  N434  1  0.50800000  0.71971000  0.92348000  1.0
  N  N435  1  0.57432000  0.76987000  0.95594000  1.0
  N  N436  1  0.56966000  0.20258000  0.75846000  1.0
  N  N437  1  0.69260000  0.16420000  0.75273000  1.0
  N  N438  1  0.52416000  0.16349000  0.71077000  1.0
  N  N439  1  0.55290000  0.12297000  0.76361000  1.0
  N  N440  1  0.52904000  0.30411000  0.18670000  1.0
  N  N441  1  0.69068000  0.32038000  0.16835000  1.0
  N  N442  1  0.51102000  0.35965000  0.15727000  1.0
  N  N443  1  0.64198000  0.32994000  0.12143000  1.0
  N  N444  1  0.53804000  0.88036000  0.31419000  1.0
  N  N445  1  0.69402000  0.91304000  0.32251000  1.0
  N  N446  1  0.50560000  0.92342000  0.35682000  1.0
  N  N447  1  0.63326000  0.95552000  0.31997000  1.0
  N  N448  1  0.60904000  0.75681000  0.20159000  1.0
  N  N449  1  0.47860000  0.75246000  0.16144000  1.0
  N  N450  1  0.64844000  0.71099000  0.16191000  1.0
  N  N451  1  0.60086000  0.76716000  0.12234000  1.0
  N  N452  1  0.61262000  0.87621000  0.75946000  1.0
  N  N453  1  0.48626000  0.92438000  0.73592000  1.0
  N  N454  1  0.69630000  0.91802000  0.74930000  1.0
  N  N455  1  0.53564000  0.95592000  0.74958000  1.0
  N  N456  1  0.63072000  0.31325000  0.88196000  1.0
  N  N457  1  0.47420000  0.32496000  0.91404000  1.0
  N  N458  1  0.65092000  0.36286000  0.91712000  1.0
  N  N459  1  0.54154000  0.31367000  0.95494000  1.0
  N  N460  1  0.58494000  0.20364000  0.32267000  1.0
  N  N461  1  0.47624000  0.15963000  0.32519000  1.0
  N  N462  1  0.65528000  0.15946000  0.36296000  1.0
  N  N463  1  0.62388000  0.12291000  0.31566000  1.0
