# generated using pymatgen
data_NdH43C60(NO)10
_symmetry_space_group_name_H-M   'P 1'
_cell_length_a   32.91050000
_cell_length_b   35.66980000
_cell_length_c   48.61870000
_cell_angle_alpha   90.00000000
_cell_angle_beta   93.91700000
_cell_angle_gamma   90.00000000
_symmetry_Int_Tables_number   1
_chemical_formula_structural   NdH43C60(NO)10
_chemical_formula_sum   'Nd4 H172 C240 N40 O40'
_cell_volume   56940.70262820
_cell_formula_units_Z   4
loop_
 _symmetry_equiv_pos_site_id
 _symmetry_equiv_pos_as_xyz
  1  'x, y, z'
loop_
 _atom_site_type_symbol
 _atom_site_label
 _atom_site_symmetry_multiplicity
 _atom_site_fract_x
 _atom_site_fract_y
 _atom_site_fract_z
 _atom_site_occupancy
  Nd  Nd0  1  0.00480000  0.96950000  0.97838000  1.0
  Nd  Nd1  1  0.99403000  0.02930000  0.02104000  1.0
  Nd  Nd2  1  0.99605000  0.47348000  0.52998000  1.0
  Nd  Nd3  1  0.00251000  0.53099000  0.47290000  1.0
  H  H4  1  0.08404000  0.06316000  0.98066000  1.0
  H  H5  1  0.92131000  0.93090000  0.02052000  1.0
  H  H6  1  0.92662000  0.55770000  0.52809000  1.0
  H  H7  1  0.06919000  0.44593000  0.47298000  1.0
  H  H8  1  0.11927000  0.83743000  0.17355000  1.0
  H  H9  1  0.19606000  0.71675000  0.38843000  1.0
  H  H10  1  0.24917000  0.72583000  0.38431000  1.0
  H  H11  1  0.21046000  0.75598000  0.36856000  1.0
  H  H12  1  0.24358000  0.74779000  0.32545000  1.0
  H  H13  1  0.22302000  0.64458000  0.28079000  1.0
  H  H14  1  0.19643000  0.61611000  0.32126000  1.0
  H  H15  1  0.25390000  0.77010000  0.28246000  1.0
  H  H16  1  0.29531000  0.73758000  0.29038000  1.0
  H  H17  1  0.35783000  0.59361000  0.17137000  1.0
  H  H18  1  0.31119000  0.72132000  0.21362000  1.0
  H  H19  1  0.27477000  0.69381000  0.23129000  1.0
  H  H20  1  0.33777000  0.67280000  0.19787000  1.0
  H  H21  1  0.36838000  0.65204000  0.28420000  1.0
  H  H22  1  0.40956000  0.59859000  0.27225000  1.0
  H  H23  1  0.41079000  0.60761000  0.17293000  1.0
  H  H24  1  0.11285000  0.81345000  0.14073000  1.0
  H  H25  1  0.18336000  0.78499000  0.19889000  1.0
  H  H26  1  0.29245000  0.81292000  0.15922000  1.0
  H  H27  1  0.22727000  0.74700000  0.22238000  1.0
  H  H28  1  0.23756000  0.79354000  0.23637000  1.0
  H  H29  1  0.25166000  0.84239000  0.12149000  1.0
  H  H30  1  0.37198000  0.64111000  0.16376000  1.0
  H  H31  1  0.11921000  0.78689000  0.17164000  1.0
  H  H32  1  0.39312000  0.80565000  0.24881000  1.0
  H  H33  1  0.30349000  0.88101000  0.27890000  1.0
  H  H34  1  0.35572000  0.92942000  0.28549000  1.0
  H  H35  1  0.34537000  0.76633000  0.26511000  1.0
  H  H36  1  0.33555000  0.78135000  0.22957000  1.0
  H  H37  1  0.47107000  0.87271000  0.24285000  1.0
  H  H38  1  0.45926000  0.82378000  0.24310000  1.0
  H  H39  1  0.47647000  0.84641000  0.27475000  1.0
  H  H40  1  0.52606000  0.15316000  0.25879000  1.0
  H  H41  1  0.60692000  0.42107000  0.18245000  1.0
  H  H42  1  0.65180000  0.39363000  0.17951000  1.0
  H  H43  1  0.60244000  0.37233000  0.17276000  1.0
  H  H44  1  0.66839000  0.34188000  0.21127000  1.0
  H  H45  1  0.61754000  0.34369000  0.29073000  1.0
  H  H46  1  0.57101000  0.39349000  0.27471000  1.0
  H  H47  1  0.67557000  0.28302000  0.22613000  1.0
  H  H48  1  0.72028000  0.30855000  0.23964000  1.0
  H  H49  1  0.75737000  0.28538000  0.40272000  1.0
  H  H50  1  0.74836000  0.23535000  0.29516000  1.0
  H  H51  1  0.70657000  0.26625000  0.30215000  1.0
  H  H52  1  0.75656000  0.25644000  0.33929000  1.0
  H  H53  1  0.78594000  0.35838000  0.29762000  1.0
  H  H54  1  0.81285000  0.38502000  0.34104000  1.0
  H  H55  1  0.81188000  0.27698000  0.40296000  1.0
  H  H56  1  0.52902000  0.13311000  0.29318000  1.0
  H  H57  1  0.60538000  0.20111000  0.28091000  1.0
  H  H58  1  0.70163000  0.12255000  0.26840000  1.0
  H  H59  1  0.65193000  0.24132000  0.27328000  1.0
  H  H60  1  0.65981000  0.22008000  0.24034000  1.0
  H  H61  1  0.65248000  0.07116000  0.26700000  1.0
  H  H62  1  0.77670000  0.24591000  0.38507000  1.0
  H  H63  1  0.53957000  0.18169000  0.28834000  1.0
  H  H64  1  0.80785000  0.22191000  0.21493000  1.0
  H  H65  1  0.69589000  0.18985000  0.17012000  1.0
  H  H66  1  0.73448000  0.16049000  0.13481000  1.0
  H  H67  1  0.76655000  0.25704000  0.23705000  1.0
  H  H68  1  0.75634000  0.21044000  0.24993000  1.0
  H  H69  1  0.87214000  0.20288000  0.15953000  1.0
  H  H70  1  0.87319000  0.17066000  0.18849000  1.0
  H  H71  1  0.86934000  0.22054000  0.19358000  1.0
  H  H72  1  0.66004000  0.38979000  0.83238000  1.0
  H  H73  1  0.88491000  0.17909000  0.86036000  1.0
  H  H74  1  0.87569000  0.16272000  0.82536000  1.0
  H  H75  1  0.87800000  0.21221000  0.83315000  1.0
  H  H76  1  0.81301000  0.21228000  0.80353000  1.0
  H  H77  1  0.70481000  0.18982000  0.84605000  1.0
  H  H78  1  0.74632000  0.16031000  0.88356000  1.0
  H  H79  1  0.76993000  0.25008000  0.77985000  1.0
  H  H80  1  0.75726000  0.20318000  0.76740000  1.0
  H  H81  1  0.52781000  0.14450000  0.75398000  1.0
  H  H82  1  0.65096000  0.23345000  0.73917000  1.0
  H  H83  1  0.66224000  0.21290000  0.77288000  1.0
  H  H84  1  0.60237000  0.19426000  0.73564000  1.0
  H  H85  1  0.70049000  0.11396000  0.74015000  1.0
  H  H86  1  0.65085000  0.06294000  0.73796000  1.0
  H  H87  1  0.52276000  0.12849000  0.71848000  1.0
  H  H88  1  0.61144000  0.41237000  0.82888000  1.0
  H  H89  1  0.67199000  0.33347000  0.80278000  1.0
  H  H90  1  0.61240000  0.33465000  0.72090000  1.0
  H  H91  1  0.67992000  0.27537000  0.78809000  1.0
  H  H92  1  0.72194000  0.30184000  0.77548000  1.0
  H  H93  1  0.56896000  0.38582000  0.73431000  1.0
  H  H94  1  0.53516000  0.17624000  0.72611000  1.0
  H  H95  1  0.61460000  0.36375000  0.83859000  1.0
  H  H96  1  0.74627000  0.24892000  0.67756000  1.0
  H  H97  1  0.78303000  0.35135000  0.71892000  1.0
  H  H98  1  0.80920000  0.37471000  0.67682000  1.0
  H  H99  1  0.74577000  0.22914000  0.72174000  1.0
  H  H100  1  0.70154000  0.25803000  0.71248000  1.0
  H  H101  1  0.79821000  0.26375000  0.61679000  1.0
  H  H102  1  0.74407000  0.27482000  0.61391000  1.0
  H  H103  1  0.76263000  0.23539000  0.63356000  1.0
  H  H104  1  0.25289000  0.70922000  0.61021000  1.0
  H  H105  1  0.47264000  0.86760000  0.74920000  1.0
  H  H106  1  0.45901000  0.81952000  0.75244000  1.0
  H  H107  1  0.46820000  0.83786000  0.71896000  1.0
  H  H108  1  0.39238000  0.79876000  0.74165000  1.0
  H  H109  1  0.29593000  0.87652000  0.71714000  1.0
  H  H110  1  0.34651000  0.92621000  0.71395000  1.0
  H  H111  1  0.34283000  0.75996000  0.72991000  1.0
  H  H112  1  0.33626000  0.77747000  0.76450000  1.0
  H  H113  1  0.11445000  0.81183000  0.80792000  1.0
  H  H114  1  0.22951000  0.73880000  0.76635000  1.0
  H  H115  1  0.23713000  0.78580000  0.75327000  1.0
  H  H116  1  0.18541000  0.76584000  0.78998000  1.0
  H  H117  1  0.29204000  0.81711000  0.83029000  1.0
  H  H118  1  0.24931000  0.84791000  0.86285000  1.0
  H  H119  1  0.11705000  0.79301000  0.84264000  1.0
  H  H120  1  0.20140000  0.69983000  0.59704000  1.0
  H  H121  1  0.24171000  0.73732000  0.66476000  1.0
  H  H122  1  0.20271000  0.64328000  0.71206000  1.0
  H  H123  1  0.25184000  0.76292000  0.70766000  1.0
  H  H124  1  0.29038000  0.72760000  0.70317000  1.0
  H  H125  1  0.17755000  0.61212000  0.66955000  1.0
  H  H126  1  0.12475000  0.76289000  0.81420000  1.0
  H  H127  1  0.21261000  0.74183000  0.61616000  1.0
  H  H128  1  0.34061000  0.66313000  0.79494000  1.0
  H  H129  1  0.36574000  0.64733000  0.70980000  1.0
  H  H130  1  0.40956000  0.59448000  0.72284000  1.0
  H  H131  1  0.31877000  0.71605000  0.77922000  1.0
  H  H132  1  0.27793000  0.68818000  0.76257000  1.0
  H  H133  1  0.41693000  0.59520000  0.82241000  1.0
  H  H134  1  0.36233000  0.58929000  0.82227000  1.0
  H  H135  1  0.38583000  0.63409000  0.83002000  1.0
  H  H136  1  0.95085000  0.06073000  0.11482000  1.0
  H  H137  1  0.77959000  0.17917000  0.09701000  1.0
  H  H138  1  0.14055000  0.60217000  0.47368000  1.0
  H  H139  1  0.12497000  0.64498000  0.33196000  1.0
  H  H140  1  0.05116000  0.96316000  0.09409000  1.0
  H  H141  1  0.19889000  0.82278000  0.08156000  1.0
  H  H142  1  0.96467000  0.44056000  0.41646000  1.0
  H  H143  1  0.78079000  0.34142000  0.42127000  1.0
  H  H144  1  0.13327000  0.88240000  0.97421000  1.0
  H  H145  1  0.13341000  0.87447000  0.82921000  1.0
  H  H146  1  0.95265000  0.43105000  0.61056000  1.0
  H  H147  1  0.77099000  0.32745000  0.59495000  1.0
  H  H148  1  0.93373000  0.02587000  0.90610000  1.0
  H  H149  1  0.80845000  0.18321000  0.92158000  1.0
  H  H150  1  0.02537000  0.61240000  0.55818000  1.0
  H  H151  1  0.22987000  0.60362000  0.61071000  1.0
  H  H152  1  0.40231000  0.95756000  0.23998000  1.0
  H  H153  1  0.47211000  0.90301000  0.30643000  1.0
  H  H154  1  0.53591000  0.93362000  0.32572000  1.0
  H  H155  1  0.58458000  0.98566000  0.32527000  1.0
  H  H156  1  0.60501000  0.04665000  0.30630000  1.0
  H  H157  1  0.53280000  0.09339000  0.23762000  1.0
  H  H158  1  0.60664000  0.46864000  0.24333000  1.0
  H  H159  1  0.51595000  0.39332000  0.20732000  1.0
  H  H160  1  0.44803000  0.41928000  0.19140000  1.0
  H  H161  1  0.39946000  0.47151000  0.19021000  1.0
  H  H162  1  0.38273000  0.53689000  0.20385000  1.0
  H  H163  1  0.47902000  0.60604000  0.24023000  1.0
  H  H164  1  0.53993000  0.08151000  0.77143000  1.0
  H  H165  1  0.59176000  0.04536000  0.69705000  1.0
  H  H166  1  0.56334000  0.98896000  0.67308000  1.0
  H  H167  1  0.51352000  0.93779000  0.66998000  1.0
  H  H168  1  0.45554000  0.90413000  0.68921000  1.0
  H  H169  1  0.40609000  0.94788000  0.76224000  1.0
  H  H170  1  0.39187000  0.53028000  0.79031000  1.0
  H  H171  1  0.48125000  0.60231000  0.75730000  1.0
  H  H172  1  0.55089000  0.57872000  0.75369000  1.0
  H  H173  1  0.59923000  0.52663000  0.75680000  1.0
  H  H174  1  0.61290000  0.45950000  0.76512000  1.0
  H  H175  1  0.52116000  0.39159000  0.79940000  1.0
  C  C176  1  0.94095000  0.06609000  0.05911000  1.0
  C  C177  1  0.94109000  0.03834000  0.96150000  1.0
  C  C178  1  0.05879000  0.05446000  0.99220000  1.0
  C  C179  1  0.06858000  0.92988000  0.95484000  1.0
  C  C180  1  0.05643000  0.95934000  0.03878000  1.0
  C  C181  1  0.94458000  0.94131000  0.00790000  1.0
  C  C182  1  0.06692000  0.57048000  0.45280000  1.0
  C  C183  1  0.05469000  0.55128000  0.53332000  1.0
  C  C184  1  0.94494000  0.55071000  0.51121000  1.0
  C  C185  1  0.93312000  0.43834000  0.55643000  1.0
  C  C186  1  0.94432000  0.45429000  0.46810000  1.0
  C  C187  1  0.05183000  0.45310000  0.49029000  1.0
  C  C188  1  0.28523000  0.75159000  0.24660000  1.0
  C  C189  1  0.20182000  0.66607000  0.34649000  1.0
  C  C190  1  0.23399000  0.69854000  0.29948000  1.0
  C  C191  1  0.21763000  0.70304000  0.34801000  1.0
  C  C192  1  0.21813000  0.72643000  0.37382000  1.0
  C  C193  1  0.23359000  0.71894000  0.32444000  1.0
  C  C194  1  0.22234000  0.66099000  0.29948000  1.0
  C  C195  1  0.20722000  0.64478000  0.32270000  1.0
  C  C196  1  0.26900000  0.74423000  0.27549000  1.0
  C  C197  1  0.39788000  0.60498000  0.22822000  1.0
  C  C198  1  0.34964000  0.66666667  0.24243000  1.0
  C  C199  1  0.37680000  0.62607000  0.20717000  1.0
  C  C200  1  0.37954000  0.61653000  0.17716000  1.0
  C  C201  1  0.35260000  0.65665000  0.21440000  1.0
  C  C202  1  0.36999000  0.64475000  0.26270000  1.0
  C  C203  1  0.39360000  0.61434000  0.25583000  1.0
  C  C204  1  0.30024000  0.71428000  0.23406000  1.0
  C  C205  1  0.19363000  0.83029000  0.13790000  1.0
  C  C206  1  0.24164000  0.79675000  0.18206000  1.0
  C  C207  1  0.17458000  0.81360000  0.16020000  1.0
  C  C208  1  0.12895000  0.81298000  0.16151000  1.0
  C  C209  1  0.19868000  0.79741000  0.18217000  1.0
  C  C210  1  0.25964000  0.81300000  0.15973000  1.0
  C  C211  1  0.23623000  0.82953000  0.13804000  1.0
  C  C212  1  0.25114000  0.76873000  0.22654000  1.0
  C  C213  1  0.40426000  0.89523000  0.27134000  1.0
  C  C214  1  0.34328000  0.83954000  0.26319000  1.0
  C  C215  1  0.41461000  0.85964000  0.26123000  1.0
  C  C216  1  0.45773000  0.85016000  0.25510000  1.0
  C  C217  1  0.38419000  0.83225000  0.25709000  1.0
  C  C218  1  0.33425000  0.87473000  0.27382000  1.0
  C  C219  1  0.36411000  0.90229000  0.27768000  1.0
  C  C220  1  0.32225000  0.77873000  0.24993000  1.0
  C  C221  1  0.71100000  0.25342000  0.25850000  1.0
  C  C222  1  0.59182000  0.39548000  0.23355000  1.0
  C  C223  1  0.64605000  0.33811000  0.25246000  1.0
  C  C224  1  0.61973000  0.38061000  0.21562000  1.0
  C  C225  1  0.62011000  0.39276000  0.18597000  1.0
  C  C226  1  0.64683000  0.35226000  0.22524000  1.0
  C  C227  1  0.61835000  0.35363000  0.26975000  1.0
  C  C228  1  0.59170000  0.38192000  0.26055000  1.0
  C  C229  1  0.69447000  0.29058000  0.24521000  1.0
  C  C230  1  0.80089000  0.33631000  0.36580000  1.0
  C  C231  1  0.76933000  0.30549000  0.31465000  1.0
  C  C232  1  0.78392000  0.29971000  0.36496000  1.0
  C  C233  1  0.78251000  0.27578000  0.39040000  1.0
  C  C234  1  0.76830000  0.28473000  0.33949000  1.0
  C  C235  1  0.78498000  0.34179000  0.31619000  1.0
  C  C236  1  0.80033000  0.35697000  0.34116000  1.0
  C  C237  1  0.73126000  0.26085000  0.28803000  1.0
  C  C238  1  0.60025000  0.10659000  0.27231000  1.0
  C  C239  1  0.65731000  0.16577000  0.27349000  1.0
  C  C240  1  0.58708000  0.14388000  0.27618000  1.0
  C  C241  1  0.54298000  0.15338000  0.27931000  1.0
  C  C242  1  0.61576000  0.17304000  0.27696000  1.0
  C  C243  1  0.66980000  0.12874000  0.27041000  1.0
  C  C244  1  0.64172000  0.09951000  0.26969000  1.0
  C  C245  1  0.67441000  0.22644000  0.26119000  1.0
  C  C246  1  0.79384000  0.17509000  0.15376000  1.0
  C  C247  1  0.74825000  0.20828000  0.19540000  1.0
  C  C248  1  0.81407000  0.19335000  0.17677000  1.0
  C  C249  1  0.85976000  0.19693000  0.17973000  1.0
  C  C250  1  0.79132000  0.20887000  0.19754000  1.0
  C  C251  1  0.72883000  0.19079000  0.17231000  1.0
  C  C252  1  0.75103000  0.17426000  0.15196000  1.0
  C  C253  1  0.74246000  0.23572000  0.23966000  1.0
  C  C254  1  0.71134000  0.24632000  0.75657000  1.0
  C  C255  1  0.80358000  0.16977000  0.86547000  1.0
  C  C256  1  0.75505000  0.20322000  0.82173000  1.0
  C  C257  1  0.82223000  0.18495000  0.84254000  1.0
  C  C258  1  0.86772000  0.18448000  0.84037000  1.0
  C  C259  1  0.79787000  0.20112000  0.82078000  1.0
  C  C260  1  0.73749000  0.18859000  0.84483000  1.0
  C  C261  1  0.76123000  0.17207000  0.86636000  1.0
  C  C262  1  0.74509000  0.22904000  0.77669000  1.0
  C  C263  1  0.59812000  0.09925000  0.73617000  1.0
  C  C264  1  0.65588000  0.15806000  0.73912000  1.0
  C  C265  1  0.58472000  0.13690000  0.73543000  1.0
  C  C266  1  0.54011000  0.14699000  0.73338000  1.0
  C  C267  1  0.61359000  0.16587000  0.73685000  1.0
  C  C268  1  0.66836000  0.12065000  0.73899000  1.0
  C  C269  1  0.63999000  0.09159000  0.73767000  1.0
  C  C270  1  0.67468000  0.21892000  0.75257000  1.0
  C  C271  1  0.59454000  0.38841000  0.77638000  1.0
  C  C272  1  0.64534000  0.32967000  0.76041000  1.0
  C  C273  1  0.62367000  0.37301000  0.79587000  1.0
  C  C274  1  0.62751000  0.38565000  0.82551000  1.0
  C  C275  1  0.64919000  0.34402000  0.78769000  1.0
  C  C276  1  0.61577000  0.34504000  0.74184000  1.0
  C  C277  1  0.59086000  0.37405000  0.74956000  1.0
  C  C278  1  0.69580000  0.28314000  0.76938000  1.0
  C  C279  1  0.79367000  0.32541000  0.65225000  1.0
  C  C280  1  0.76348000  0.29817000  0.70215000  1.0
  C  C281  1  0.77475000  0.28961000  0.65281000  1.0
  C  C282  1  0.76984000  0.26466000  0.62781000  1.0
  C  C283  1  0.75985000  0.27648000  0.67764000  1.0
  C  C284  1  0.78059000  0.33379000  0.70074000  1.0
  C  C285  1  0.79543000  0.34714000  0.67645000  1.0
  C  C286  1  0.72803000  0.25402000  0.72776000  1.0
  C  C287  1  0.28519000  0.74509000  0.74584000  1.0
  C  C288  1  0.39812000  0.89096000  0.72576000  1.0
  C  C289  1  0.33920000  0.83380000  0.73016000  1.0
  C  C290  1  0.41075000  0.85445000  0.73354000  1.0
  C  C291  1  0.45514000  0.84444000  0.73883000  1.0
  C  C292  1  0.38142000  0.82625000  0.73557000  1.0
  C  C293  1  0.32775000  0.87002000  0.72184000  1.0
  C  C294  1  0.35664000  0.89833000  0.71991000  1.0
  C  C295  1  0.32102000  0.77304000  0.74358000  1.0
  C  C296  1  0.19279000  0.82459000  0.84536000  1.0
  C  C297  1  0.24263000  0.78971000  0.80713000  1.0
  C  C298  1  0.17526000  0.80022000  0.82475000  1.0
  C  C299  1  0.13032000  0.79168000  0.82230000  1.0
  C  C300  1  0.20002000  0.78370000  0.80560000  1.0
  C  C301  1  0.25951000  0.81234000  0.82849000  1.0
  C  C302  1  0.23511000  0.82964000  0.84725000  1.0
  C  C303  1  0.25222000  0.76141000  0.76401000  1.0
  C  C304  1  0.19544000  0.65652000  0.64267000  1.0
  C  C305  1  0.22445000  0.69238000  0.69203000  1.0
  C  C306  1  0.21388000  0.69220000  0.64150000  1.0
  C  C307  1  0.22037000  0.71164000  0.61464000  1.0
  C  C308  1  0.22822000  0.70982000  0.66614000  1.0
  C  C309  1  0.20615000  0.65709000  0.69255000  1.0
  C  C310  1  0.19191000  0.63932000  0.66828000  1.0
  C  C311  1  0.26580000  0.73674000  0.71639000  1.0
  C  C312  1  0.40178000  0.59907000  0.76651000  1.0
  C  C313  1  0.35020000  0.65995000  0.75099000  1.0
  C  C314  1  0.38160000  0.61869000  0.78689000  1.0
  C  C315  1  0.38707000  0.60859000  0.81702000  1.0
  C  C316  1  0.35541000  0.64858000  0.77893000  1.0
  C  C317  1  0.36949000  0.63933000  0.73129000  1.0
  C  C318  1  0.39465000  0.60927000  0.73880000  1.0
  C  C319  1  0.30291000  0.70830000  0.75912000  1.0
  C  C320  1  0.86090000  0.12382000  0.09146000  1.0
  C  C321  1  0.87132000  0.11774000  0.11955000  1.0
  C  C322  1  0.92551000  0.07840000  0.10801000  1.0
  C  C323  1  0.91612000  0.08476000  0.07981000  1.0
  C  C324  1  0.80552000  0.16189000  0.10352000  1.0
  C  C325  1  0.81670000  0.15672000  0.13177000  1.0
  C  C326  1  0.11534000  0.61808000  0.39654000  1.0
  C  C327  1  0.15275000  0.63025000  0.40893000  1.0
  C  C328  1  0.13325000  0.60690000  0.45194000  1.0
  C  C329  1  0.09660000  0.59344000  0.43902000  1.0
  C  C330  1  0.13323000  0.64078000  0.35365000  1.0
  C  C331  1  0.17171000  0.65161000  0.36533000  1.0
  C  C332  1  0.12793000  0.88964000  0.07338000  1.0
  C  C333  1  0.12118000  0.89613000  0.10117000  1.0
  C  C334  1  0.07319000  0.94288000  0.08800000  1.0
  C  C335  1  0.07993000  0.93709000  0.06008000  1.0
  C  C336  1  0.17701000  0.84355000  0.08722000  1.0
  C  C337  1  0.17018000  0.85013000  0.11511000  1.0
  C  C338  1  0.86750000  0.38918000  0.43342000  1.0
  C  C339  1  0.88174000  0.38801000  0.40689000  1.0
  C  C340  1  0.93742000  0.42590000  0.42162000  1.0
  C  C341  1  0.92318000  0.42817000  0.44825000  1.0
  C  C342  1  0.80967000  0.35370000  0.41710000  1.0
  C  C343  1  0.82400000  0.35276000  0.39041000  1.0
  C  C344  1  0.11901000  0.88974000  0.89549000  1.0
  C  C345  1  0.14899000  0.86619000  0.90782000  1.0
  C  C346  1  0.12885000  0.88455000  0.95203000  1.0
  C  C347  1  0.09826000  0.90782000  0.93955000  1.0
  C  C348  1  0.13773000  0.87163000  0.85137000  1.0
  C  C349  1  0.16737000  0.84723000  0.86337000  1.0
  C  C350  1  0.85644000  0.37603000  0.58774000  1.0
  C  C351  1  0.87176000  0.37653000  0.61537000  1.0
  C  C352  1  0.92557000  0.41552000  0.60378000  1.0
  C  C353  1  0.91091000  0.41529000  0.57590000  1.0
  C  C354  1  0.80002000  0.34011000  0.60088000  1.0
  C  C355  1  0.81566000  0.34048000  0.62865000  1.0
  C  C356  1  0.87127000  0.10972000  0.92821000  1.0
  C  C357  1  0.87173000  0.09937000  0.90039000  1.0
  C  C358  1  0.91593000  0.04929000  0.91264000  1.0
  C  C359  1  0.91583000  0.05940000  0.94059000  1.0
  C  C360  1  0.82621000  0.15945000  0.91553000  1.0
  C  C361  1  0.82714000  0.14926000  0.88762000  1.0
  C  C362  1  0.13851000  0.59453000  0.57709000  1.0
  C  C363  1  0.11766000  0.62337000  0.58984000  1.0
  C  C364  1  0.05744000  0.60754000  0.56325000  1.0
  C  C365  1  0.07784000  0.57799000  0.55105000  1.0
  C  C366  1  0.19827000  0.60944000  0.60469000  1.0
  C  C367  1  0.17702000  0.63738000  0.61809000  1.0
  C  C368  1  0.51737000  0.01478000  0.27288000  1.0
  C  C369  1  0.48946000  0.98517000  0.27320000  1.0
  C  C370  1  0.42836000  0.95664000  0.25478000  1.0
  C  C371  1  0.43381000  0.92641000  0.27302000  1.0
  C  C372  1  0.46778000  0.92609000  0.29204000  1.0
  C  C373  1  0.49598000  0.95559000  0.29230000  1.0
  C  C374  1  0.53040000  0.95609000  0.31098000  1.0
  C  C375  1  0.55809000  0.98579000  0.31078000  1.0
  C  C376  1  0.55167000  0.01526000  0.29193000  1.0
  C  C377  1  0.57880000  0.04543000  0.29157000  1.0
  C  C378  1  0.57192000  0.07442000  0.27237000  1.0
  C  C379  1  0.53813000  0.07213000  0.25329000  1.0
  C  C380  1  0.48332000  0.51717000  0.21891000  1.0
  C  C381  1  0.51106000  0.48736000  0.21956000  1.0
  C  C382  1  0.57652000  0.46349000  0.23376000  1.0
  C  C383  1  0.56469000  0.42720000  0.22582000  1.0
  C  C384  1  0.52553000  0.42136000  0.21337000  1.0
  C  C385  1  0.49824000  0.45154000  0.21016000  1.0
  C  C386  1  0.45819000  0.44647000  0.19898000  1.0
  C  C387  1  0.43049000  0.47627000  0.19829000  1.0
  C  C388  1  0.44253000  0.51149000  0.20879000  1.0
  C  C389  1  0.41450000  0.54093000  0.21056000  1.0
  C  C390  1  0.42724000  0.57512000  0.22245000  1.0
  C  C391  1  0.46834000  0.57980000  0.23123000  1.0
  C  C392  1  0.48383000  0.98041000  0.72838000  1.0
  C  C393  1  0.51255000  0.00943000  0.73027000  1.0
  C  C394  1  0.54046000  0.06274000  0.75400000  1.0
  C  C395  1  0.56910000  0.06758000  0.73426000  1.0
  C  C396  1  0.56965000  0.04205000  0.71240000  1.0
  C  C397  1  0.54137000  0.01271000  0.71021000  1.0
  C  C398  1  0.54131000  0.98678000  0.68855000  1.0
  C  C399  1  0.51291000  0.95761000  0.68680000  1.0
  C  C400  1  0.48414000  0.95416000  0.70663000  1.0
  C  C401  1  0.45564000  0.92490000  0.70548000  1.0
  C  C402  1  0.42728000  0.92232000  0.72560000  1.0
  C  C403  1  0.42767000  0.94936000  0.74647000  1.0
  C  C404  1  0.51792000  0.48288000  0.78330000  1.0
  C  C405  1  0.49005000  0.51273000  0.78129000  1.0
  C  C406  1  0.42265000  0.53556000  0.78486000  1.0
  C  C407  1  0.43285000  0.56997000  0.77327000  1.0
  C  C408  1  0.47293000  0.57585000  0.76634000  1.0
  C  C409  1  0.50182000  0.54732000  0.77018000  1.0
  C  C410  1  0.54152000  0.55227000  0.76213000  1.0
  C  C411  1  0.56908000  0.52259000  0.76393000  1.0
  C  C412  1  0.55728000  0.48771000  0.77391000  1.0
  C  C413  1  0.58329000  0.45682000  0.77343000  1.0
  C  C414  1  0.57021000  0.42175000  0.78206000  1.0
  C  C415  1  0.53177000  0.41845000  0.79248000  1.0
  N  N416  1  0.90329000  0.09521000  0.12713000  1.0
  N  N417  1  0.88374000  0.10757000  0.07214000  1.0
  N  N418  1  0.82799000  0.14565000  0.08410000  1.0
  N  N419  1  0.84934000  0.13437000  0.13888000  1.0
  N  N420  1  0.16076000  0.62461000  0.43650000  1.0
  N  N421  1  0.08879000  0.59971000  0.41166000  1.0
  N  N422  1  0.10627000  0.62392000  0.36937000  1.0
  N  N423  1  0.18061000  0.64643000  0.39300000  1.0
  N  N424  1  0.09387000  0.92237000  0.10780000  1.0
  N  N425  1  0.10699000  0.91007000  0.05333000  1.0
  N  N426  1  0.15568000  0.86335000  0.06703000  1.0
  N  N427  1  0.14231000  0.87642000  0.12122000  1.0
  N  N428  1  0.91643000  0.40606000  0.40166000  1.0
  N  N429  1  0.88848000  0.40931000  0.45371000  1.0
  N  N430  1  0.83175000  0.37182000  0.43791000  1.0
  N  N431  1  0.85987000  0.37009000  0.38633000  1.0
  N  N432  1  0.15340000  0.86429000  0.93588000  1.0
  N  N433  1  0.09471000  0.90974000  0.91149000  1.0
  N  N434  1  0.11421000  0.89210000  0.86763000  1.0
  N  N435  1  0.17274000  0.84545000  0.89153000  1.0
  N  N436  1  0.90590000  0.39610000  0.62272000  1.0
  N  N437  1  0.87650000  0.39522000  0.56835000  1.0
  N  N438  1  0.82084000  0.35768000  0.58115000  1.0
  N  N439  1  0.85133000  0.35884000  0.63480000  1.0
  N  N440  1  0.89403000  0.06951000  0.89324000  1.0
  N  N441  1  0.89355000  0.08972000  0.94773000  1.0
  N  N442  1  0.84846000  0.13957000  0.93517000  1.0
  N  N443  1  0.84986000  0.11927000  0.88086000  1.0
  N  N444  1  0.07771000  0.62938000  0.58253000  1.0
  N  N445  1  0.11804000  0.57212000  0.55825000  1.0
  N  N446  1  0.17846000  0.58847000  0.58460000  1.0
  N  N447  1  0.13721000  0.64383000  0.61019000  1.0
  N  N448  1  0.45602000  0.98484000  0.25518000  1.0
  N  N449  1  0.51179000  0.04294000  0.25414000  1.0
  N  N450  1  0.54973000  0.49232000  0.23067000  1.0
  N  N451  1  0.49501000  0.55108000  0.22943000  1.0
  N  N452  1  0.51306000  0.03430000  0.75150000  1.0
  N  N453  1  0.45571000  0.97729000  0.74747000  1.0
  N  N454  1  0.45110000  0.50801000  0.78849000  1.0
  N  N455  1  0.50663000  0.44870000  0.79267000  1.0
  O  O456  1  0.95111000  0.03123000  0.05910000  1.0
  O  O457  1  0.96010000  0.08228000  0.04021000  1.0
  O  O458  1  0.95684000  0.00600000  0.95380000  1.0
  O  O459  1  0.94912000  0.05341000  0.98628000  1.0
  O  O460  1  0.03900000  0.02335000  0.98716000  1.0
  O  O461  1  0.04477000  0.07284000  0.01296000  1.0
  O  O462  1  0.04287000  0.95263000  0.94181000  1.0
  O  O463  1  0.06168000  0.92786000  0.98131000  1.0
  O  O464  1  0.03969000  0.99142000  0.04702000  1.0
  O  O465  1  0.05044000  0.94526000  0.01323000  1.0
  O  O466  1  0.96249000  0.97373000  0.01298000  1.0
  O  O467  1  0.95842000  0.92309000  0.98671000  1.0
  O  O468  1  0.04512000  0.54516000  0.43897000  1.0
  O  O469  1  0.05560000  0.57509000  0.47824000  1.0
  O  O470  1  0.04176000  0.52037000  0.54573000  1.0
  O  O471  1  0.04543000  0.56131000  0.50695000  1.0
  O  O472  1  0.96238000  0.51924000  0.50696000  1.0
  O  O473  1  0.95415000  0.57267000  0.49118000  1.0
  O  O474  1  0.95416000  0.46726000  0.56554000  1.0
  O  O475  1  0.94320000  0.42840000  0.53165000  1.0
  O  O476  1  0.95858000  0.48491000  0.45612000  1.0
  O  O477  1  0.95123000  0.44486000  0.49499000  1.0
  O  O478  1  0.03704000  0.48526000  0.49575000  1.0
  O  O479  1  0.04155000  0.43086000  0.50971000  1.0
  O  O480  1  0.24081000  0.71430000  0.27396000  1.0
  O  O481  1  0.33186000  0.69925000  0.25180000  1.0
  O  O482  1  0.26818000  0.77937000  0.20173000  1.0
  O  O483  1  0.31070000  0.81443000  0.25923000  1.0
  O  O484  1  0.67141000  0.31016000  0.26408000  1.0
  O  O485  1  0.75819000  0.29175000  0.28822000  1.0
  O  O486  1  0.68735000  0.19323000  0.27505000  1.0
  O  O487  1  0.72313000  0.22578000  0.21368000  1.0
  O  O488  1  0.72846000  0.22054000  0.80207000  1.0
  O  O489  1  0.68630000  0.18533000  0.73979000  1.0
  O  O490  1  0.66926000  0.30166000  0.74981000  1.0
  O  O491  1  0.75309000  0.28625000  0.72824000  1.0
  O  O492  1  0.30770000  0.80775000  0.73222000  1.0
  O  O493  1  0.26983000  0.77242000  0.79020000  1.0
  O  O494  1  0.23550000  0.70876000  0.71750000  1.0
  O  O495  1  0.33019000  0.69219000  0.74128000  1.0
