# generated using pymatgen
data_ZnH36C47(NO4)2
_symmetry_space_group_name_H-M   'P 1'
_cell_length_a   17.91705000
_cell_length_b   25.51250000
_cell_length_c   35.40940000
_cell_angle_alpha   91.57400000
_cell_angle_beta   90.19800000
_cell_angle_gamma   91.47900000
_symmetry_Int_Tables_number   1
_chemical_formula_structural   ZnH36C47(NO4)2
_chemical_formula_sum   'Zn4 H144 C188 N8 O32'
_cell_volume   16174.30816247
_cell_formula_units_Z   4
loop_
 _symmetry_equiv_pos_site_id
 _symmetry_equiv_pos_as_xyz
  1  'x, y, z'
loop_
 _atom_site_type_symbol
 _atom_site_label
 _atom_site_symmetry_multiplicity
 _atom_site_fract_x
 _atom_site_fract_y
 _atom_site_fract_z
 _atom_site_occupancy
  C  C0  1  0.90642000  0.06706000  0.30019000  1.0
  C  C1  1  0.95906000  0.93805000  0.22392000  1.0
  C  C2  1  0.07554000  0.94342000  0.31539000  1.0
  C  C3  1  0.03166000  0.07032000  0.21851000  1.0
  C  C4  1  0.08254000  0.93668000  0.73449000  1.0
  C  C5  1  0.03970000  0.07625000  0.80286000  1.0
  C  C6  1  0.91914000  0.06054000  0.71250000  1.0
  C  C7  1  0.95578000  0.94794000  0.81832000  1.0
  C  C8  1  0.16362000  0.27547000  0.07647000  1.0
  C  C9  1  0.14322000  0.24516000  0.10669000  1.0
  C  C10  1  0.26718000  0.22759000  0.97212000  1.0
  C  C11  1  0.23962000  0.19530000  0.94238000  1.0
  C  C12  1  0.21214000  0.38699000  0.05541000  1.0
  C  C13  1  0.18804000  0.43808000  0.05473000  1.0
  C  C14  1  0.34884000  0.33656000  0.97867000  1.0
  C  C15  1  0.38942000  0.38262000  0.97223000  1.0
  C  C16  1  0.17958000  0.37457000  0.98937000  1.0
  C  C17  1  0.15280000  0.42540000  0.98912000  1.0
  C  C18  1  0.37218000  0.34719000  0.04520000  1.0
  C  C19  1  0.41330000  0.39393000  0.03871000  1.0
  C  C20  1  0.14236000  0.25525000  0.98569000  1.0
  C  C21  1  0.11434000  0.22109000  0.95740000  1.0
  C  C22  1  0.28532000  0.23692000  0.07508000  1.0
  C  C23  1  0.26444000  0.20597000  0.10593000  1.0
  C  C24  1  0.23542000  0.27303000  0.06019000  1.0
  C  C25  1  0.19288000  0.21003000  0.12210000  1.0
  C  C26  1  0.21984000  0.26182000  0.99203000  1.0
  C  C27  1  0.16262000  0.19260000  0.93377000  1.0
  C  C28  1  0.20828000  0.35378000  0.02284000  1.0
  C  C29  1  0.15840000  0.45818000  0.02166000  1.0
  C  C30  1  0.33114000  0.32137000  0.01567000  1.0
  C  C31  1  0.41632000  0.41550000  0.00235000  1.0
  C  C32  1  0.24988000  0.30134000  0.02278000  1.0
  C  C33  1  0.73056000  0.76755000  0.96411000  1.0
  C  C34  1  0.74764000  0.80288000  0.93549000  1.0
  C  C35  1  0.86120000  0.73557000  0.06055000  1.0
  C  C36  1  0.88172000  0.77047000  0.08954000  1.0
  C  C37  1  0.66310000  0.65491000  0.97246000  1.0
  C  C38  1  0.60182000  0.62066000  0.96841000  1.0
  C  C39  1  0.83774000  0.62174000  0.04168000  1.0
  C  C40  1  0.90282000  0.59346000  0.04318000  1.0
  C  C41  1  0.65480000  0.64973000  0.04006000  1.0
  C  C42  1  0.59400000  0.61404000  0.03589000  1.0
  C  C43  1  0.85370000  0.63160000  0.97496000  1.0
  C  C44  1  0.91900000  0.60304000  0.97614000  1.0
  C  C45  1  0.73356000  0.76337000  0.06457000  1.0
  C  C46  1  0.75490000  0.79978000  0.09356000  1.0
  C  C47  1  0.86112000  0.74747000  0.96911000  1.0
  C  C48  1  0.87792000  0.78193000  0.94048000  1.0
  C  C49  1  0.78646000  0.73625000  0.97959000  1.0
  C  C50  1  0.82130000  0.80887000  0.92263000  1.0
  C  C51  1  0.78640000  0.72991000  0.04776000  1.0
  C  C52  1  0.82980000  0.80420000  0.10578000  1.0
  C  C53  1  0.69088000  0.67081000  0.00830000  1.0
  C  C54  1  0.56822000  0.59672000  0.99986000  1.0
  C  C55  1  0.82046000  0.64880000  0.00888000  1.0
  C  C56  1  0.94882000  0.58791000  0.01114000  1.0
  C  C57  1  0.76944000  0.69673000  0.01122000  1.0
  C  C58  1  0.17868000  0.74040000  0.46741000  1.0
  C  C59  1  0.15724000  0.77584000  0.44070000  1.0
  C  C60  1  0.28898000  0.77684000  0.56865000  1.0
  C  C61  1  0.26268000  0.80939000  0.59791000  1.0
  C  C62  1  0.22738000  0.62575000  0.47595000  1.0
  C  C63  1  0.20402000  0.57360000  0.47211000  1.0
  C  C64  1  0.37030000  0.66683000  0.55546000  1.0
  C  C65  1  0.40656000  0.61905000  0.55656000  1.0
  C  C66  1  0.20346000  0.62388000  0.54307000  1.0
  C  C67  1  0.17700000  0.57222000  0.53888000  1.0
  C  C68  1  0.38874000  0.66888000  0.48831000  1.0
  C  C69  1  0.42668000  0.62133000  0.48955000  1.0
  C  C70  1  0.16488000  0.73914000  0.56009000  1.0
  C  C71  1  0.13882000  0.77117000  0.58947000  1.0
  C  C72  1  0.30294000  0.77964000  0.46942000  1.0
  C  C73  1  0.28106000  0.81565000  0.44227000  1.0
  C  C74  1  0.25222000  0.74070000  0.48205000  1.0
  C  C75  1  0.20740000  0.81447000  0.42818000  1.0
  C  C76  1  0.24128000  0.73932000  0.55028000  1.0
  C  C77  1  0.18738000  0.80651000  0.60902000  1.0
  C  C78  1  0.22718000  0.65239000  0.51148000  1.0
  C  C79  1  0.17850000  0.54610000  0.50340000  1.0
  C  C80  1  0.35048000  0.68824000  0.52049000  1.0
  C  C81  1  0.42748000  0.59264000  0.52302000  1.0
  C  C82  1  0.26878000  0.70614000  0.51610000  1.0
  C  C83  1  0.72058000  0.24946000  0.56462000  1.0
  C  C84  1  0.73562000  0.21075000  0.59095000  1.0
  C  C85  1  0.85382000  0.26604000  0.47336000  1.0
  C  C86  1  0.87084000  0.23030000  0.44479000  1.0
  C  C87  1  0.66224000  0.36566000  0.55082000  1.0
  C  C88  1  0.60182000  0.39923000  0.55170000  1.0
  C  C89  1  0.84364000  0.38321000  0.47880000  1.0
  C  C90  1  0.91222000  0.40919000  0.47529000  1.0
  C  C91  1  0.65500000  0.36049000  0.48303000  1.0
  C  C92  1  0.59346000  0.39341000  0.48387000  1.0
  C  C93  1  0.85622000  0.38702000  0.54630000  1.0
  C  C94  1  0.92592000  0.41228000  0.54303000  1.0
  C  C95  1  0.72214000  0.24922000  0.46294000  1.0
  C  C96  1  0.73946000  0.21400000  0.43306000  1.0
  C  C97  1  0.85180000  0.27322000  0.56335000  1.0
  C  C98  1  0.86640000  0.23554000  0.58967000  1.0
  C  C99  1  0.77842000  0.28223000  0.55057000  1.0
  C  C100  1  0.80918000  0.20288000  0.60318000  1.0
  C  C101  1  0.77926000  0.27843000  0.48220000  1.0
  C  C102  1  0.81440000  0.20516000  0.42312000  1.0
  C  C103  1  0.68926000  0.34437000  0.51655000  1.0
  C  C104  1  0.56542000  0.41416000  0.51835000  1.0
  C  C105  1  0.82180000  0.36387000  0.51401000  1.0
  C  C106  1  0.95892000  0.41836000  0.50709000  1.0
  C  C107  1  0.76536000  0.31717000  0.51597000  1.0
  C  C108  1  0.08110000  0.10806000  0.19922000  1.0
  C  C109  1  0.07132000  0.16301000  0.20233000  1.0
  C  C110  1  0.11532000  0.19603000  0.17979000  1.0
  C  C111  1  0.16512000  0.17578000  0.15279000  1.0
  C  C112  1  0.17812000  0.12182000  0.15202000  1.0
  C  C113  1  0.13728000  0.08847000  0.17547000  1.0
  C  C114  1  0.92228000  0.91044000  0.19135000  1.0
  C  C115  1  0.95992000  0.90237000  0.15677000  1.0
  C  C116  1  0.92678000  0.86991000  0.12857000  1.0
  C  C117  1  0.85702000  0.84471000  0.13400000  1.0
  C  C118  1  0.81780000  0.85566000  0.16739000  1.0
  C  C119  1  0.85008000  0.88844000  0.19573000  1.0
  C  C120  1  0.11482000  0.91380000  0.34452000  1.0
  C  C121  1  0.18762000  0.89406000  0.33937000  1.0
  C  C122  1  0.21990000  0.86456000  0.36804000  1.0
  C  C123  1  0.18022000  0.85332000  0.40109000  1.0
  C  C124  1  0.10962000  0.87492000  0.40638000  1.0
  C  C125  1  0.07736000  0.90448000  0.37849000  1.0
  C  C126  1  0.88618000  0.10196000  0.33219000  1.0
  C  C127  1  0.92728000  0.14879000  0.34125000  1.0
  C  C128  1  0.90038000  0.18281000  0.36959000  1.0
  C  C129  1  0.83594000  0.17035000  0.39055000  1.0
  C  C130  1  0.79566000  0.12393000  0.38114000  1.0
  C  C131  1  0.82004000  0.09054000  0.35195000  1.0
  C  C132  1  0.90546000  0.91303000  0.83928000  1.0
  C  C133  1  0.85494000  0.93224000  0.86684000  1.0
  C  C134  1  0.82326000  0.89689000  0.89264000  1.0
  C  C135  1  0.84154000  0.84372000  0.89133000  1.0
  C  C136  1  0.88750000  0.82496000  0.86228000  1.0
  C  C137  1  0.91922000  0.85926000  0.83665000  1.0
  C  C138  1  0.07560000  0.10589000  0.83504000  1.0
  C  C139  1  0.14566000  0.09324000  0.85062000  1.0
  C  C140  1  0.17168000  0.11979000  0.88364000  1.0
  C  C141  1  0.13256000  0.16186000  0.89999000  1.0
  C  C142  1  0.06532000  0.17589000  0.88272000  1.0
  C  C143  1  0.03666000  0.14766000  0.85146000  1.0
  C  C144  1  0.88106000  0.08934000  0.68250000  1.0
  C  C145  1  0.81140000  0.11371000  0.68789000  1.0
  C  C146  1  0.78654000  0.14946000  0.66121000  1.0
  C  C147  1  0.82876000  0.16002000  0.62883000  1.0
  C  C148  1  0.89408000  0.13192000  0.62227000  1.0
  C  C149  1  0.92024000  0.09768000  0.64889000  1.0
  C  C150  1  0.10520000  0.90120000  0.70265000  1.0
  C  C151  1  0.05928000  0.89018000  0.67053000  1.0
  C  C152  1  0.08742000  0.86070000  0.63984000  1.0
  C  C153  1  0.15938000  0.83994000  0.64090000  1.0
  C  C154  1  0.20358000  0.84983000  0.67319000  1.0
  C  C155  1  0.17710000  0.88013000  0.70343000  1.0
  C  C156  1  0.42532000  0.47581000  0.99595000  1.0
  C  C157  1  0.48694000  0.50950000  0.01933000  1.0
  C  C158  1  0.49910000  0.55943000  0.99433000  1.0
  C  C159  1  0.48950000  0.53843000  0.95345000  1.0
  C  C160  1  0.44718000  0.48626000  0.95446000  1.0
  C  C161  1  0.34580000  0.49801000  0.00220000  1.0
  C  C162  1  0.46092000  0.52562000  0.05997000  1.0
  C  C163  1  0.56072000  0.47911000  0.02183000  1.0
  C  C164  1  0.49360000  0.44748000  0.52113000  1.0
  C  C165  1  0.50748000  0.50736000  0.53368000  1.0
  C  C166  1  0.43180000  0.53234000  0.52336000  1.0
  C  C167  1  0.40272000  0.50179000  0.48779000  1.0
  C  C168  1  0.45086000  0.45311000  0.48324000  1.0
  C  C169  1  0.43860000  0.41776000  0.54798000  1.0
  C  C170  1  0.52536000  0.51677000  0.57626000  1.0
  C  C171  1  0.57220000  0.53292000  0.51087000  1.0
  C  C172  1  0.03240000  0.57651000  0.01652000  1.0
  C  C173  1  0.04896000  0.52111000  0.03301000  1.0
  C  C174  1  0.13296000  0.51450000  0.02276000  1.0
  C  C175  1  0.14834000  0.54581000  0.98692000  1.0
  C  C176  1  0.07728000  0.57520000  0.97910000  1.0
  C  C177  1  0.06600000  0.62288000  0.04150000  1.0
  C  C178  1  0.03900000  0.51627000  0.07643000  1.0
  C  C179  1  0.99822000  0.47761000  0.01355000  1.0
  C  C180  1  0.04370000  0.42813000  0.50134000  1.0
  C  C181  1  0.06482000  0.48469000  0.48749000  1.0
  C  C182  1  0.15008000  0.48993000  0.49719000  1.0
  C  C183  1  0.16536000  0.45265000  0.52976000  1.0
  C  C184  1  0.09102000  0.42511000  0.53798000  1.0
  C  C185  1  0.07186000  0.38375000  0.47382000  1.0
  C  C186  1  0.05238000  0.49276000  0.44461000  1.0
  C  C187  1  0.01840000  0.52684000  0.50914000  1.0
  H  H188  1  0.12096000  0.29995000  0.06521000  1.0
  H  H189  1  0.08648000  0.24788000  0.11689000  1.0
  H  H190  1  0.32644000  0.22760000  0.97817000  1.0
  H  H191  1  0.27966000  0.17383000  0.92576000  1.0
  H  H192  1  0.23678000  0.37414000  0.08141000  1.0
  H  H193  1  0.19372000  0.46235000  0.08022000  1.0
  H  H194  1  0.31998000  0.31922000  0.95437000  1.0
  H  H195  1  0.38984000  0.39509000  0.94333000  1.0
  H  H196  1  0.17936000  0.35227000  0.96295000  1.0
  H  H197  1  0.12872000  0.43886000  0.96321000  1.0
  H  H198  1  0.36290000  0.33655000  0.07421000  1.0
  H  H199  1  0.43634000  0.41477000  0.06303000  1.0
  H  H200  1  0.10274000  0.27762000  0.00199000  1.0
  H  H201  1  0.05438000  0.21785000  0.95403000  1.0
  H  H202  1  0.33952000  0.23170000  0.06231000  1.0
  H  H203  1  0.30370000  0.17845000  0.11672000  1.0
  H  H204  1  0.67336000  0.76424000  0.97367000  1.0
  H  H205  1  0.70330000  0.82486000  0.92307000  1.0
  H  H206  1  0.90592000  0.71406000  0.04750000  1.0
  H  H207  1  0.93966000  0.77198000  0.09847000  1.0
  H  H208  1  0.69038000  0.66738000  0.94690000  1.0
  H  H209  1  0.58224000  0.61313000  0.93986000  1.0
  H  H210  1  0.80806000  0.62918000  0.06779000  1.0
  H  H211  1  0.92094000  0.58271000  0.07078000  1.0
  H  H212  1  0.67534000  0.65907000  0.06828000  1.0
  H  H213  1  0.56808000  0.60037000  0.06122000  1.0
  H  H214  1  0.83524000  0.64560000  0.94799000  1.0
  H  H215  1  0.94816000  0.59770000  0.94979000  1.0
  H  H216  1  0.67652000  0.76276000  0.05439000  1.0
  H  H217  1  0.71362000  0.82579000  0.10529000  1.0
  H  H218  1  0.90742000  0.72887000  0.98249000  1.0
  H  H219  1  0.93578000  0.78786000  0.93246000  1.0
  H  H220  1  0.13608000  0.71327000  0.47723000  1.0
  H  H221  1  0.10036000  0.77335000  0.43020000  1.0
  H  H222  1  0.34682000  0.78122000  0.56031000  1.0
  H  H223  1  0.30126000  0.83745000  0.61143000  1.0
  H  H224  1  0.24872000  0.64460000  0.45105000  1.0
  H  H225  1  0.20618000  0.55459000  0.44442000  1.0
  H  H226  1  0.34510000  0.68051000  0.58151000  1.0
  H  H227  1  0.40876000  0.59950000  0.58329000  1.0
  H  H228  1  0.20668000  0.64089000  0.57135000  1.0
  H  H229  1  0.15570000  0.55310000  0.56364000  1.0
  H  H230  1  0.37868000  0.68489000  0.46084000  1.0
  H  H231  1  0.44808000  0.60496000  0.46341000  1.0
  H  H232  1  0.12458000  0.71386000  0.54521000  1.0
  H  H233  1  0.08042000  0.76775000  0.59700000  1.0
  H  H234  1  0.35870000  0.78314000  0.48121000  1.0
  H  H235  1  0.32078000  0.84547000  0.43334000  1.0
  H  H236  1  0.66404000  0.25232000  0.55415000  1.0
  H  H237  1  0.69026000  0.18561000  0.60049000  1.0
  H  H238  1  0.90054000  0.28439000  0.48843000  1.0
  H  H239  1  0.92916000  0.22247000  0.43984000  1.0
  H  H240  1  0.68926000  0.35760000  0.57735000  1.0
  H  H241  1  0.58336000  0.41271000  0.57917000  1.0
  H  H242  1  0.81320000  0.37200000  0.45324000  1.0
  H  H243  1  0.93118000  0.41636000  0.44701000  1.0
  H  H244  1  0.67666000  0.34872000  0.45571000  1.0
  H  H245  1  0.56924000  0.40195000  0.45693000  1.0
  H  H246  1  0.83496000  0.37939000  0.57426000  1.0
  H  H247  1  0.95452000  0.42297000  0.56902000  1.0
  H  H248  1  0.66422000  0.25384000  0.47054000  1.0
  H  H249  1  0.69422000  0.19424000  0.41760000  1.0
  H  H250  1  0.89994000  0.29367000  0.55216000  1.0
  H  H251  1  0.92370000  0.23115000  0.59871000  1.0
  H  H252  1  0.21636000  0.10489000  0.13176000  1.0
  H  H253  1  0.14688000  0.04677000  0.17347000  1.0
  H  H254  1  0.10712000  0.23795000  0.18158000  1.0
  H  H255  1  0.76392000  0.83697000  0.17238000  1.0
  H  H256  1  0.82006000  0.89446000  0.22194000  1.0
  H  H257  1  0.95612000  0.86412000  0.10213000  1.0
  H  H258  1  0.07820000  0.86778000  0.43190000  1.0
  H  H259  1  0.02220000  0.91968000  0.38342000  1.0
  H  H260  1  0.27390000  0.84739000  0.36338000  1.0
  H  H261  1  0.74600000  0.11286000  0.39666000  1.0
  H  H262  1  0.78740000  0.05521000  0.34498000  1.0
  H  H263  1  0.93092000  0.21927000  0.37560000  1.0
  H  H264  1  0.90198000  0.78398000  0.86058000  1.0
  H  H265  1  0.95822000  0.84414000  0.81596000  1.0
  H  H266  1  0.78744000  0.91127000  0.91502000  1.0
  H  H267  1  0.03432000  0.20922000  0.89281000  1.0
  H  H268  1  0.98382000  0.15929000  0.83976000  1.0
  H  H269  1  0.22360000  0.10765000  0.89587000  1.0
  H  H270  1  0.92676000  0.13782000  0.59699000  1.0
  H  H271  1  0.97284000  0.07880000  0.64360000  1.0
  H  H272  1  0.73538000  0.17017000  0.66640000  1.0
  H  H273  1  0.25870000  0.83373000  0.67536000  1.0
  H  H274  1  0.21390000  0.88746000  0.72743000  1.0
  H  H275  1  0.05220000  0.85346000  0.61523000  1.0
  H  H276  1  0.45134000  0.58560000  0.99957000  1.0
  H  H277  1  0.54442000  0.53076000  0.94009000  1.0
  H  H278  1  0.45890000  0.56672000  0.93617000  1.0
  H  H279  1  0.39828000  0.48636000  0.93496000  1.0
  H  H280  1  0.48538000  0.45554000  0.94366000  1.0
  H  H281  1  0.32532000  0.49099000  0.03118000  1.0
  H  H282  1  0.30484000  0.47834000  0.98248000  1.0
  H  H283  1  0.34348000  0.54063000  0.99722000  1.0
  H  H284  1  0.42254000  0.49646000  0.07243000  1.0
  H  H285  1  0.43062000  0.56305000  0.06030000  1.0
  H  H286  1  0.50848000  0.53005000  0.08005000  1.0
  H  H287  1  0.60572000  0.50386000  0.03532000  1.0
  H  H288  1  0.58062000  0.46635000  0.99347000  1.0
  H  H289  1  0.55360000  0.44381000  0.03915000  1.0
  H  H290  1  0.39214000  0.52074000  0.54601000  1.0
  H  H291  1  0.40578000  0.52435000  0.46156000  1.0
  H  H292  1  0.34316000  0.48968000  0.49165000  1.0
  H  H293  1  0.41628000  0.41764000  0.47524000  1.0
  H  H294  1  0.48918000  0.46099000  0.45947000  1.0
  H  H295  1  0.43106000  0.37623000  0.53800000  1.0
  H  H296  1  0.38200000  0.43434000  0.54869000  1.0
  H  H297  1  0.45888000  0.41702000  0.57752000  1.0
  H  H298  1  0.48034000  0.50152000  0.59469000  1.0
  H  H299  1  0.53176000  0.55945000  0.58290000  1.0
  H  H300  1  0.57900000  0.49932000  0.58405000  1.0
  H  H301  1  0.58040000  0.57498000  0.51923000  1.0
  H  H302  1  0.56142000  0.53110000  0.48000000  1.0
  H  H303  1  0.62566000  0.51330000  0.51633000  1.0
  H  H304  1  0.16652000  0.53540000  0.04540000  1.0
  H  H305  1  0.16402000  0.52179000  0.96178000  1.0
  H  H306  1  0.19530000  0.57451000  0.99226000  1.0
  H  H307  1  0.09016000  0.61500000  0.96835000  1.0
  H  H308  1  0.04686000  0.55231000  0.95651000  1.0
  H  H309  1  0.03898000  0.62612000  0.06956000  1.0
  H  H310  1  0.05752000  0.66077000  0.02747000  1.0
  H  H311  1  0.12688000  0.61968000  0.04634000  1.0
  H  H312  1  0.06992000  0.54748000  0.09285000  1.0
  H  H313  1  0.06050000  0.47834000  0.08576000  1.0
  H  H314  1  0.97966000  0.51531000  0.08485000  1.0
  H  H315  1  0.01022000  0.43831000  0.02453000  1.0
  H  H316  1  0.00562000  0.47584000  0.98247000  1.0
  H  H317  1  0.93836000  0.48432000  0.01945000  1.0
  H  H318  1  0.18134000  0.47350000  0.47257000  1.0
  H  H319  1  0.18906000  0.47177000  0.55577000  1.0
  H  H320  1  0.20650000  0.42301000  0.52054000  1.0
  H  H321  1  0.09890000  0.38415000  0.54696000  1.0
  H  H322  1  0.06668000  0.44738000  0.56202000  1.0
  H  H323  1  0.05918000  0.34464000  0.48573000  1.0
  H  H324  1  0.13298000  0.38639000  0.46907000  1.0
  H  H325  1  0.04526000  0.38388000  0.44556000  1.0
  H  H326  1  0.08408000  0.46489000  0.42667000  1.0
  H  H327  1  0.07154000  0.53279000  0.43694000  1.0
  H  H328  1  0.99250000  0.48975000  0.43689000  1.0
  H  H329  1  0.03396000  0.56709000  0.50026000  1.0
  H  H330  1  0.02616000  0.52536000  0.54017000  1.0
  H  H331  1  0.95786000  0.52154000  0.50291000  1.0
  N  N332  1  0.01746000  0.18641000  0.22748000  1.0
  N  N333  1  0.03072000  0.92762000  0.14943000  1.0
  N  N334  1  0.22730000  0.90012000  0.30453000  1.0
  N  N335  1  0.99480000  0.16351000  0.32173000  1.0
  N  N336  1  0.83900000  0.98724000  0.87064000  1.0
  N  N337  1  0.19254000  0.05517000  0.83294000  1.0
  N  N338  1  0.76694000  0.10461000  0.72076000  1.0
  N  N339  1  0.98338000  0.90670000  0.66896000  1.0
  O  O340  1  0.10890000  0.97242000  0.29049000  1.0
  O  O341  1  0.05864000  0.04316000  0.24647000  1.0
  O  O342  1  0.96206000  0.06378000  0.20642000  1.0
  O  O343  1  0.00292000  0.94338000  0.31242000  1.0
  O  O344  1  0.03038000  0.93840000  0.23050000  1.0
  O  O345  1  0.92500000  0.96895000  0.24725000  1.0
  O  O346  1  0.96758000  0.03898000  0.30212000  1.0
  O  O347  1  0.86178000  0.06423000  0.27064000  1.0
  O  O348  1  0.88532000  0.03747000  0.74032000  1.0
  O  O349  1  0.93162000  0.97124000  0.78785000  1.0
  O  O350  1  0.02590000  0.95179000  0.82970000  1.0
  O  O351  1  0.99180000  0.05835000  0.71461000  1.0
  O  O352  1  0.96988000  0.08031000  0.79393000  1.0
  O  O353  1  0.06898000  0.03852000  0.78341000  1.0
  O  O354  1  0.02492000  0.96776000  0.73055000  1.0
  O  O355  1  0.12368000  0.93883000  0.76540000  1.0
  O  O356  1  0.02554000  0.23545000  0.23820000  1.0
  O  O357  1  0.95660000  0.16125000  0.23686000  1.0
  O  O358  1  0.08054000  0.90350000  0.12927000  1.0
  O  O359  1  0.04066000  0.97737000  0.15733000  1.0
  O  O360  1  0.29944000  0.90739000  0.30501000  1.0
  O  O361  1  0.19412000  0.88883000  0.27247000  1.0
  O  O362  1  0.01398000  0.21283000  0.31913000  1.0
  O  O363  1  0.04286000  0.12851000  0.31168000  1.0
  O  O364  1  0.81538000  0.00673000  0.90265000  1.0
  O  O365  1  0.84150000  0.01725000  0.84154000  1.0
  O  O366  1  0.21418000  0.06139000  0.79827000  1.0
  O  O367  1  0.22594000  0.02119000  0.85341000  1.0
  O  O368  1  0.73824000  0.14407000  0.73911000  1.0
  O  O369  1  0.74212000  0.05740000  0.72738000  1.0
  O  O370  1  0.95704000  0.92521000  0.63789000  1.0
  O  O371  1  0.93724000  0.89419000  0.69574000  1.0
  Zn  Zn372  1  0.88596000  0.02621000  0.22920000  1.0
  Zn  Zn373  1  0.01404000  0.98714000  0.27126000  1.0
  Zn  Zn374  1  0.10356000  0.98231000  0.80470000  1.0
  Zn  Zn375  1  0.97986000  0.02229000  0.75920000  1.0
