# generated using pymatgen
data_DyH52C52(NO)8
_symmetry_space_group_name_H-M   'P 1'
_cell_length_a   33.16240000
_cell_length_b   33.16240000
_cell_length_c   33.32730000
_cell_angle_alpha   92.79100000
_cell_angle_beta   92.47300000
_cell_angle_gamma   92.64000000
_symmetry_Int_Tables_number   1
_chemical_formula_structural   DyH52C52(NO)8
_chemical_formula_sum   'Dy3 H156 C156 N24 O24'
_cell_volume   36531.33156995
_cell_formula_units_Z   3
loop_
 _symmetry_equiv_pos_site_id
 _symmetry_equiv_pos_as_xyz
  1  'x, y, z'
loop_
 _atom_site_type_symbol
 _atom_site_label
 _atom_site_symmetry_multiplicity
 _atom_site_fract_x
 _atom_site_fract_y
 _atom_site_fract_z
 _atom_site_occupancy
  Dy  Dy0  1  0.97208000  0.48025000  0.46663000  1.0
  Dy  Dy1  1  0.47650000  0.45837000  0.97658000  1.0
  Dy  Dy2  1  0.44957000  0.97600000  0.46673000  1.0
  H  H3  1  0.57118000  0.16086000  0.63167000  1.0
  H  H4  1  0.64650000  0.10955000  0.63635000  1.0
  H  H5  1  0.60415000  0.10706000  0.66872000  1.0
  H  H6  1  0.66262000  0.15007000  0.69892000  1.0
  H  H7  1  0.61484000  0.22522000  0.63219000  1.0
  H  H8  1  0.65755000  0.22665000  0.60058000  1.0
  H  H9  1  0.66544000  0.32509000  0.85510000  1.0
  H  H10  1  0.61833000  0.36110000  0.78430000  1.0
  H  H11  1  0.61766000  0.17802000  0.69227000  1.0
  H  H12  1  0.64343000  0.15605000  0.57619000  1.0
  H  H13  1  0.60002000  0.18584000  0.56835000  1.0
  H  H14  1  0.67879000  0.35463000  0.74760000  1.0
  H  H15  1  0.70525000  0.33216000  0.78874000  1.0
  H  H16  1  0.83058000  0.29089000  0.59301000  1.0
  H  H17  1  0.68256000  0.26345000  0.80811000  1.0
  H  H18  1  0.64070000  0.23700000  0.78048000  1.0
  H  H19  1  0.66045000  0.38413000  0.81414000  1.0
  H  H20  1  0.62018000  0.26444000  0.84673000  1.0
  H  H21  1  0.59269000  0.28458000  0.80508000  1.0
  H  H22  1  0.78594000  0.36632000  0.62139000  1.0
  H  H23  1  0.80410000  0.25191000  0.65330000  1.0
  H  H24  1  0.81071000  0.27703000  0.70252000  1.0
  H  H25  1  0.72593000  0.32155000  0.61859000  1.0
  H  H26  1  0.75398000  0.27851000  0.60331000  1.0
  H  H27  1  0.78068000  0.33970000  0.57294000  1.0
  H  H28  1  0.86772000  0.29447000  0.65846000  1.0
  H  H29  1  0.84115000  0.33778000  0.67546000  1.0
  H  H30  1  0.63076000  0.58215000  0.16567000  1.0
  H  H31  1  0.64097000  0.65728000  0.11514000  1.0
  H  H32  1  0.67161000  0.61355000  0.11359000  1.0
  H  H33  1  0.70285000  0.67084000  0.15749000  1.0
  H  H34  1  0.63066000  0.62572000  0.22969000  1.0
  H  H35  1  0.60093000  0.66985000  0.23031000  1.0
  H  H36  1  0.85395000  0.66946000  0.33462000  1.0
  H  H37  1  0.78116000  0.62079000  0.36605000  1.0
  H  H38  1  0.69302000  0.62606000  0.18477000  1.0
  H  H39  1  0.57870000  0.65683000  0.15933000  1.0
  H  H40  1  0.56751000  0.61371000  0.18843000  1.0
  H  H41  1  0.74503000  0.68209000  0.36156000  1.0
  H  H42  1  0.78763000  0.70933000  0.34193000  1.0
  H  H43  1  0.59214000  0.83465000  0.29172000  1.0
  H  H44  1  0.80949000  0.68948000  0.27320000  1.0
  H  H45  1  0.78203000  0.64898000  0.24437000  1.0
  H  H46  1  0.81074000  0.66169000  0.39185000  1.0
  H  H47  1  0.84728000  0.62650000  0.27238000  1.0
  H  H48  1  0.80433000  0.59853000  0.29011000  1.0
  H  H49  1  0.62379000  0.80011000  0.37111000  1.0
  H  H50  1  0.65375000  0.80965000  0.25531000  1.0
  H  H51  1  0.70296000  0.82025000  0.27963000  1.0
  H  H52  1  0.62331000  0.73614000  0.33216000  1.0
  H  H53  1  0.60554000  0.75902000  0.28714000  1.0
  H  H54  1  0.57488000  0.78962000  0.34623000  1.0
  H  H55  1  0.65599000  0.87596000  0.29287000  1.0
  H  H56  1  0.67403000  0.85373000  0.33808000  1.0
  H  H57  1  0.09865000  0.28123000  0.33795000  1.0
  H  H58  1  0.11290000  0.33462000  0.26606000  1.0
  H  H59  1  0.07595000  0.29366000  0.26940000  1.0
  H  H60  1  0.13632000  0.27463000  0.23137000  1.0
  H  H61  1  0.17460000  0.25847000  0.33510000  1.0
  H  H62  1  0.21325000  0.29862000  0.33564000  1.0
  H  H63  1  0.34034000  0.27169000  0.10568000  1.0
  H  H64  1  0.26192000  0.31851000  0.10438000  1.0
  H  H65  1  0.13000000  0.24455000  0.27449000  1.0
  H  H66  1  0.16423000  0.35031000  0.33569000  1.0
  H  H67  1  0.15453000  0.31768000  0.37605000  1.0
  H  H68  1  0.23138000  0.26053000  0.13559000  1.0
  H  H69  1  0.27831000  0.23516000  0.13748000  1.0
  H  H70  1  0.26169000  0.10898000  0.33713000  1.0
  H  H71  1  0.33498000  0.26352000  0.18337000  1.0
  H  H72  1  0.32777000  0.30878000  0.21397000  1.0
  H  H73  1  0.27199000  0.27317000  0.07544000  1.0
  H  H74  1  0.37047000  0.32223000  0.15574000  1.0
  H  H75  1  0.32512000  0.35000000  0.15585000  1.0
  H  H76  1  0.30766000  0.11033000  0.25855000  1.0
  H  H77  1  0.25188000  0.18723000  0.33404000  1.0
  H  H78  1  0.29659000  0.21885000  0.32735000  1.0
  H  H79  1  0.24891000  0.14170000  0.22973000  1.0
  H  H80  1  0.22386000  0.14214000  0.27669000  1.0
  H  H81  1  0.26287000  0.08039000  0.26829000  1.0
  H  H82  1  0.31129000  0.15952000  0.36799000  1.0
  H  H83  1  0.33882000  0.16129000  0.32271000  1.0
  H  H84  1  0.10623000  0.66210000  0.62917000  1.0
  H  H85  1  0.14512000  0.58909000  0.66674000  1.0
  H  H86  1  0.10554000  0.61851000  0.68657000  1.0
  H  H87  1  0.17338000  0.63817000  0.71846000  1.0
  H  H88  1  0.17717000  0.69921000  0.62754000  1.0
  H  H89  1  0.21680000  0.67094000  0.60581000  1.0
  H  H90  1  0.29548000  0.58794000  0.82902000  1.0
  H  H91  1  0.37322000  0.61739000  0.78895000  1.0
  H  H92  1  0.15171000  0.67980000  0.69386000  1.0
  H  H93  1  0.17326000  0.61091000  0.59410000  1.0
  H  H94  1  0.14971000  0.65284000  0.57196000  1.0
  H  H95  1  0.33116000  0.61602000  0.72739000  1.0
  H  H96  1  0.28681000  0.59999000  0.75299000  1.0
  H  H97  1  0.29065000  0.79670000  0.58042000  1.0
  H  H98  1  0.25799000  0.64919000  0.80301000  1.0
  H  H99  1  0.28290000  0.69848000  0.81188000  1.0
  H  H100  1  0.34682000  0.56879000  0.78125000  1.0
  H  H101  1  0.29783000  0.65298000  0.86783000  1.0
  H  H102  1  0.34240000  0.67037000  0.84358000  1.0
  H  H103  1  0.31071000  0.84673000  0.65997000  1.0
  H  H104  1  0.30406000  0.73174000  0.61384000  1.0
  H  H105  1  0.34775000  0.73039000  0.64772000  1.0
  H  H106  1  0.25468000  0.80567000  0.68464000  1.0
  H  H107  1  0.24647000  0.77880000  0.63646000  1.0
  H  H108  1  0.26622000  0.85007000  0.62723000  1.0
  H  H109  1  0.36093000  0.77234000  0.58981000  1.0
  H  H110  1  0.36736000  0.80126000  0.63700000  1.0
  H  H111  1  0.85065000  0.39814000  0.64030000  1.0
  H  H112  1  0.88019000  0.30918000  0.54852000  1.0
  H  H113  1  0.92210000  0.36026000  0.51731000  1.0
  H  H114  1  0.89180000  0.44921000  0.60873000  1.0
  H  H115  1  0.61089000  0.61590000  0.06348000  1.0
  H  H116  1  0.56167000  0.54565000  0.15759000  1.0
  H  H117  1  0.51802000  0.50705000  0.10783000  1.0
  H  H118  1  0.56824000  0.57578000  0.01364000  1.0
  H  H119  1  0.11331000  0.39215000  0.31149000  1.0
  H  H120  1  0.04430000  0.30391000  0.37481000  1.0
  H  H121  1  0.00581000  0.35790000  0.40479000  1.0
  H  H122  1  0.07541000  0.44588000  0.34173000  1.0
  H  H123  1  0.40225000  0.63399000  0.85482000  1.0
  H  H124  1  0.31041000  0.54282000  0.87891000  1.0
  H  H125  1  0.35856000  0.51104000  0.92350000  1.0
  H  H126  1  0.45037000  0.60193000  0.89869000  1.0
  H  H127  1  0.91668000  0.64675000  0.35670000  1.0
  H  H128  1  0.81387000  0.56151000  0.35213000  1.0
  H  H129  1  0.85499000  0.51259000  0.38503000  1.0
  H  H130  1  0.95813000  0.59718000  0.38870000  1.0
  H  H131  1  0.38339000  0.28850000  0.05426000  1.0
  H  H132  1  0.30034000  0.37735000  0.09346000  1.0
  H  H133  1  0.33130000  0.42613000  0.05069000  1.0
  H  H134  1  0.41450000  0.33752000  0.01122000  1.0
  H  H135  1  0.04241000  0.64318000  0.59953000  1.0
  H  H136  1  0.13221000  0.55285000  0.60176000  1.0
  H  H137  1  0.08771000  0.50740000  0.55838000  1.0
  H  H138  1  0.99733000  0.59697000  0.55709000  1.0
  H  H139  1  0.64376000  0.34813000  0.91802000  1.0
  H  H140  1  0.55870000  0.34771000  0.81604000  1.0
  H  H141  1  0.51113000  0.38236000  0.85756000  1.0
  H  H142  1  0.59534000  0.38191000  0.95996000  1.0
  H  H143  1  0.54373000  0.88231000  0.30416000  1.0
  H  H144  1  0.63689000  0.86897000  0.39654000  1.0
  H  H145  1  0.60114000  0.91204000  0.44281000  1.0
  H  H146  1  0.50821000  0.92611000  0.35045000  1.0
  H  H147  1  0.53125000  0.15486000  0.56513000  1.0
  H  H148  1  0.60511000  0.05897000  0.60507000  1.0
  H  H149  1  0.56475000  0.01054000  0.56094000  1.0
  H  H150  1  0.49229000  0.10653000  0.51998000  1.0
  H  H151  1  0.36772000  0.10042000  0.29655000  1.0
  H  H152  1  0.27947000  0.05558000  0.37712000  1.0
  H  H153  1  0.32950000  0.01238000  0.40624000  1.0
  H  H154  1  0.41766000  0.05766000  0.32579000  1.0
  H  H155  1  0.33684000  0.89593000  0.62257000  1.0
  H  H156  1  0.33527000  0.80561000  0.52432000  1.0
  H  H157  1  0.37201000  0.85326000  0.48425000  1.0
  H  H158  1  0.37240000  0.94378000  0.58174000  1.0
  C  C159  1  0.59445000  0.14326000  0.61633000  1.0
  C  C160  1  0.62211000  0.12707000  0.64966000  1.0
  C  C161  1  0.64176000  0.16248000  0.67610000  1.0
  C  C162  1  0.63893000  0.20680000  0.61931000  1.0
  C  C163  1  0.61950000  0.17244000  0.59167000  1.0
  C  C164  1  0.68372000  0.22425000  0.67566000  1.0
  C  C165  1  0.63672000  0.32754000  0.83695000  1.0
  C  C166  1  0.64633000  0.35476000  0.80194000  1.0
  C  C167  1  0.67508000  0.33467000  0.77322000  1.0
  C  C168  1  0.68022000  0.27595000  0.72664000  1.0
  C  C169  1  0.65299000  0.26739000  0.79194000  1.0
  C  C170  1  0.62281000  0.28450000  0.82109000  1.0
  C  C171  1  0.73313000  0.27792000  0.68150000  1.0
  C  C172  1  0.83018000  0.31983000  0.61143000  1.0
  C  C173  1  0.78767000  0.33622000  0.60550000  1.0
  C  C174  1  0.83866000  0.30975000  0.65563000  1.0
  C  C175  1  0.80449000  0.28185000  0.67007000  1.0
  C  C176  1  0.75571000  0.30755000  0.62177000  1.0
  C  C177  1  0.61715000  0.60605000  0.14775000  1.0
  C  C178  1  0.65250000  0.63234000  0.13289000  1.0
  C  C179  1  0.67852000  0.65088000  0.16897000  1.0
  C  C180  1  0.61963000  0.65041000  0.21113000  1.0
  C  C181  1  0.59239000  0.63219000  0.17599000  1.0
  C  C182  1  0.67760000  0.69280000  0.23055000  1.0
  C  C183  1  0.83552000  0.64055000  0.33530000  1.0
  C  C184  1  0.79940000  0.64907000  0.36173000  1.0
  C  C185  1  0.77155000  0.67912000  0.34245000  1.0
  C  C186  1  0.72704000  0.68735000  0.28301000  1.0
  C  C187  1  0.79263000  0.65986000  0.27532000  1.0
  C  C188  1  0.82087000  0.62856000  0.29170000  1.0
  C  C189  1  0.68379000  0.74202000  0.28427000  1.0
  C  C190  1  0.61032000  0.83843000  0.32070000  1.0
  C  C191  1  0.60712000  0.79790000  0.34134000  1.0
  C  C192  1  0.65442000  0.84821000  0.31027000  1.0
  C  C193  1  0.67063000  0.81288000  0.28504000  1.0
  C  C194  1  0.62471000  0.76436000  0.31539000  1.0
  C  C195  1  0.10920000  0.31062000  0.32623000  1.0
  C  C196  1  0.10682000  0.30522000  0.27983000  1.0
  C  C197  1  0.13776000  0.27555000  0.26484000  1.0
  C  C198  1  0.18186000  0.28928000  0.32467000  1.0
  C  C199  1  0.15321000  0.31941000  0.34278000  1.0
  C  C200  1  0.20987000  0.26889000  0.26091000  1.0
  C  C201  1  0.32502000  0.30079000  0.10915000  1.0
  C  C202  1  0.27910000  0.29051000  0.10447000  1.0
  C  C203  1  0.26482000  0.26533000  0.13912000  1.0
  C  C204  1  0.25789000  0.26800000  0.21087000  1.0
  C  C205  1  0.32019000  0.29305000  0.18414000  1.0
  C  C206  1  0.33698000  0.31932000  0.15166000  1.0
  C  C207  1  0.25636000  0.21712000  0.25786000  1.0
  C  C208  1  0.29055000  0.11341000  0.32162000  1.0
  C  C209  1  0.27981000  0.10966000  0.27595000  1.0
  C  C210  1  0.30828000  0.15620000  0.33461000  1.0
  C  C211  1  0.28131000  0.18881000  0.31911000  1.0
  C  C212  1  0.25389000  0.14448000  0.26301000  1.0
  C  C213  1  0.12079000  0.63259000  0.62560000  1.0
  C  C214  1  0.13268000  0.61968000  0.66813000  1.0
  C  C215  1  0.16471000  0.64969000  0.68864000  1.0
  C  C216  1  0.18953000  0.66860000  0.62407000  1.0
  C  C217  1  0.15855000  0.63975000  0.60096000  1.0
  C  C218  1  0.23353000  0.67579000  0.68477000  1.0
  C  C219  1  0.32456000  0.60631000  0.83047000  1.0
  C  C220  1  0.34301000  0.60137000  0.78890000  1.0
  C  C221  1  0.31577000  0.61853000  0.75638000  1.0
  C  C222  1  0.28657000  0.67919000  0.73456000  1.0
  C  C223  1  0.28798000  0.66598000  0.80498000  1.0
  C  C224  1  0.31435000  0.65063000  0.83956000  1.0
  C  C225  1  0.28177000  0.73082000  0.68868000  1.0
  C  C226  1  0.31312000  0.81419000  0.60112000  1.0
  C  C227  1  0.28993000  0.82974000  0.63741000  1.0
  C  C228  1  0.34469000  0.78504000  0.61568000  1.0
  C  C229  1  0.32389000  0.75007000  0.63643000  1.0
  C  C230  1  0.26999000  0.79382000  0.65777000  1.0
  C  C231  1  0.01908000  0.43954000  0.39848000  1.0
  C  C232  1  0.92908000  0.44123000  0.53777000  1.0
  C  C233  1  0.01451000  0.52311000  0.52449000  1.0
  C  C234  1  0.93300000  0.52337000  0.41371000  1.0
  C  C235  1  0.39918000  0.41789000  0.00842000  1.0
  C  C236  1  0.43942000  0.53081000  0.93510000  1.0
  C  C237  1  0.51549000  0.51238000  0.02717000  1.0
  C  C238  1  0.52224000  0.40922000  0.93561000  1.0
  C  C239  1  0.41011000  0.01215000  0.39125000  1.0
  C  C240  1  0.52642000  0.94098000  0.43089000  1.0
  C  C241  1  0.50033000  0.02597000  0.51083000  1.0
  C  C242  1  0.40002000  0.92929000  0.50653000  1.0
  C  C243  1  0.86663000  0.38923000  0.61390000  1.0
  C  C244  1  0.86171000  0.34964000  0.59664000  1.0
  C  C245  1  0.88326000  0.33942000  0.56247000  1.0
  C  C246  1  0.90727000  0.36868000  0.54460000  1.0
  C  C247  1  0.90973000  0.40885000  0.56026000  1.0
  C  C248  1  0.89014000  0.41856000  0.59573000  1.0
  C  C249  1  0.59091000  0.59233000  0.07385000  1.0
  C  C250  1  0.59000000  0.58393000  0.11494000  1.0
  C  C251  1  0.56303000  0.55305000  0.12635000  1.0
  C  C252  1  0.53799000  0.53093000  0.09784000  1.0
  C  C253  1  0.53983000  0.53849000  0.05694000  1.0
  C  C254  1  0.56635000  0.56942000  0.04510000  1.0
  C  C255  1  0.08964000  0.38411000  0.33142000  1.0
  C  C256  1  0.08222000  0.34366000  0.34110000  1.0
  C  C257  1  0.05089000  0.33473000  0.36688000  1.0
  C  C258  1  0.02876000  0.36565000  0.38395000  1.0
  C  C259  1  0.03779000  0.40622000  0.37589000  1.0
  C  C260  1  0.06785000  0.41497000  0.34875000  1.0
  C  C261  1  0.39208000  0.60754000  0.87006000  1.0
  C  C262  1  0.35260000  0.59061000  0.86285000  1.0
  C  C263  1  0.34065000  0.55646000  0.88365000  1.0
  C  C264  1  0.36819000  0.53831000  0.90927000  1.0
  C  C265  1  0.40837000  0.55370000  0.91417000  1.0
  C  C266  1  0.41969000  0.58914000  0.89521000  1.0
  C  C267  1  0.90297000  0.61742000  0.36238000  1.0
  C  C268  1  0.86170000  0.60853000  0.35272000  1.0
  C  C269  1  0.84527000  0.56979000  0.35998000  1.0
  C  C270  1  0.86890000  0.54161000  0.37855000  1.0
  C  C271  1  0.90968000  0.55117000  0.38955000  1.0
  C  C272  1  0.92676000  0.58898000  0.38047000  1.0
  C  C273  1  0.37118000  0.31817000  0.05300000  1.0
  C  C274  1  0.33951000  0.32898000  0.07749000  1.0
  C  C275  1  0.32456000  0.36785000  0.07496000  1.0
  C  C276  1  0.34242000  0.39592000  0.05046000  1.0
  C  C277  1  0.37563000  0.38585000  0.02784000  1.0
  C  C278  1  0.38895000  0.34625000  0.02827000  1.0
  C  C279  1  0.05237000  0.61338000  0.59128000  1.0
  C  C280  1  0.09118000  0.60202000  0.60344000  1.0
  C  C281  1  0.10282000  0.56286000  0.59242000  1.0
  C  C282  1  0.07733000  0.53677000  0.56763000  1.0
  C  C283  1  0.03934000  0.54890000  0.55413000  1.0
  C  C284  1  0.02656000  0.58695000  0.56705000  1.0
  C  C285  1  0.61475000  0.35511000  0.90460000  1.0
  C  C286  1  0.60550000  0.34597000  0.86348000  1.0
  C  C287  1  0.56723000  0.35503000  0.84735000  1.0
  C  C288  1  0.53986000  0.37471000  0.87117000  1.0
  C  C289  1  0.54972000  0.38500000  0.91184000  1.0
  C  C290  1  0.58702000  0.37428000  0.92863000  1.0
  C  C291  1  0.55709000  0.88944000  0.33403000  1.0
  C  C292  1  0.59290000  0.87170000  0.34678000  1.0
  C  C293  1  0.60931000  0.88188000  0.38576000  1.0
  C  C294  1  0.58876000  0.90654000  0.41232000  1.0
  C  C295  1  0.55162000  0.92203000  0.40039000  1.0
  C  C296  1  0.53678000  0.91461000  0.36050000  1.0
  C  C297  1  0.53925000  0.12353000  0.56426000  1.0
  C  C298  1  0.57138000  0.11119000  0.58894000  1.0
  C  C299  1  0.58059000  0.07003000  0.58694000  1.0
  C  C300  1  0.55751000  0.04208000  0.56155000  1.0
  C  C301  1  0.52560000  0.05488000  0.53704000  1.0
  C  C302  1  0.51694000  0.09587000  0.53837000  1.0
  C  C303  1  0.35864000  0.08074000  0.31986000  1.0
  C  C304  1  0.31958000  0.08174000  0.33471000  1.0
  C  C305  1  0.30926000  0.05559000  0.36504000  1.0
  C  C306  1  0.33794000  0.03075000  0.38167000  1.0
  C  C307  1  0.37770000  0.03189000  0.36861000  1.0
  C  C308  1  0.38735000  0.05622000  0.33669000  1.0
  C  C309  1  0.34351000  0.88620000  0.59227000  1.0
  C  C310  1  0.33270000  0.84670000  0.57661000  1.0
  C  C311  1  0.34286000  0.83580000  0.53714000  1.0
  C  C312  1  0.36391000  0.86304000  0.51421000  1.0
  C  C313  1  0.37487000  0.90215000  0.52993000  1.0
  C  C314  1  0.36392000  0.91382000  0.56886000  1.0
  N  N315  1  0.71782000  0.24276000  0.66289000  1.0
  N  N316  1  0.66456000  0.24161000  0.70688000  1.0
  N  N317  1  0.65794000  0.29448000  0.75849000  1.0
  N  N318  1  0.66462000  0.19084000  0.65156000  1.0
  N  N319  1  0.71435000  0.29429000  0.71334000  1.0
  N  N320  1  0.76548000  0.30081000  0.66446000  1.0
  N  N321  1  0.66557000  0.72731000  0.24887000  1.0
  N  N322  1  0.70766000  0.67251000  0.24833000  1.0
  N  N323  1  0.75807000  0.66404000  0.30141000  1.0
  N  N324  1  0.65385000  0.67476000  0.19650000  1.0
  N  N325  1  0.71455000  0.72203000  0.30121000  1.0
  N  N326  1  0.66704000  0.77511000  0.30658000  1.0
  N  N327  1  0.22450000  0.23441000  0.27525000  1.0
  N  N328  1  0.22670000  0.28544000  0.22879000  1.0
  N  N329  1  0.27603000  0.28716000  0.17781000  1.0
  N  N330  1  0.17837000  0.28966000  0.28050000  1.0
  N  N331  1  0.27275000  0.23387000  0.22557000  1.0
  N  N332  1  0.27524000  0.18333000  0.27509000  1.0
  N  N333  1  0.24838000  0.71108000  0.67084000  1.0
  N  N334  1  0.25282000  0.65999000  0.71668000  1.0
  N  N335  1  0.30854000  0.66129000  0.76682000  1.0
  N  N336  1  0.20026000  0.65291000  0.66369000  1.0
  N  N337  1  0.30109000  0.71442000  0.72027000  1.0
  N  N338  1  0.30042000  0.76504000  0.67031000  1.0
  O  O339  1  0.95248000  0.43244000  0.50800000  1.0
  O  O340  1  0.91903000  0.47874000  0.54425000  1.0
  O  O341  1  0.02941000  0.49362000  0.50235000  1.0
  O  O342  1  0.97607000  0.52889000  0.51514000  1.0
  O  O343  1  0.97228000  0.52865000  0.42269000  1.0
  O  O344  1  0.91568000  0.49354000  0.43276000  1.0
  O  O345  1  0.98837000  0.43228000  0.42119000  1.0
  O  O346  1  0.03657000  0.47598000  0.40039000  1.0
  O  O347  1  0.42921000  0.50073000  0.95752000  1.0
  O  O348  1  0.47755000  0.53684000  0.92691000  1.0
  O  O349  1  0.48586000  0.48749000  0.03746000  1.0
  O  O350  1  0.52330000  0.50841000  0.98854000  1.0
  O  O351  1  0.52568000  0.41508000  0.97528000  1.0
  O  O352  1  0.49334000  0.42982000  0.91878000  1.0
  O  O353  1  0.43023000  0.40903000  0.98695000  1.0
  O  O354  1  0.39391000  0.45600000  0.01858000  1.0
  O  O355  1  0.49488000  0.96151000  0.42045000  1.0
  O  O356  1  0.53192000  0.93210000  0.46864000  1.0
  O  O357  1  0.47612000  0.03752000  0.48146000  1.0
  O  O358  1  0.49730000  0.98655000  0.51575000  1.0
  O  O359  1  0.40424000  0.96902000  0.51353000  1.0
  O  O360  1  0.42254000  0.91562000  0.47750000  1.0
  O  O361  1  0.40136000  0.98793000  0.42009000  1.0
  O  O362  1  0.44799000  0.02433000  0.38766000  1.0
