# generated using pymatgen
data_Cd4H108C207(NO)48
_symmetry_space_group_name_H-M   'P 1'
_cell_length_a   47.53700000
_cell_length_b   47.83530000
_cell_length_c   48.06630000
_cell_angle_alpha   91.08000000
_cell_angle_beta   90.43900000
_cell_angle_gamma   88.23400000
_symmetry_Int_Tables_number   1
_chemical_formula_structural   Cd4H108C207(NO)48
_chemical_formula_sum   'Cd4 H108 C207 N48 O48'
_cell_volume   109226.13742063
_cell_formula_units_Z   1
loop_
 _symmetry_equiv_pos_site_id
 _symmetry_equiv_pos_as_xyz
  1  'x, y, z'
loop_
 _atom_site_type_symbol
 _atom_site_label
 _atom_site_symmetry_multiplicity
 _atom_site_fract_x
 _atom_site_fract_y
 _atom_site_fract_z
 _atom_site_occupancy
  Cd  Cd0  1  0.28232000  0.37190000  0.37810000  1.0
  Cd  Cd1  1  0.64275000  0.69940000  0.35732000  1.0
  Cd  Cd2  1  0.29399000  0.72031000  0.73025000  1.0
  Cd  Cd3  1  0.64359000  0.33958000  0.70979000  1.0
  H  H4  1  0.46986000  0.48702000  0.99294000  1.0
  H  H5  1  0.48401000  0.48458000  0.07180000  1.0
  H  H6  1  0.44235000  0.54693000  0.04449000  1.0
  H  H7  1  0.42716000  0.47596000  0.01959000  1.0
  H  H8  1  0.49222000  0.99806000  0.53011000  1.0
  H  H9  1  0.43453000  0.03616000  0.48874000  1.0
  H  H10  1  0.43911000  0.97476000  0.53794000  1.0
  H  H11  1  0.44478000  0.02396000  0.57613000  1.0
  H  H12  1  0.97885000  0.53703000  0.53265000  1.0
  H  H13  1  0.98012000  0.53058000  0.61918000  1.0
  H  H14  1  0.99269000  0.57670000  0.60478000  1.0
  H  H15  1  0.92882000  0.57256000  0.58777000  1.0
  H  H16  1  0.29998000  0.38553000  0.23731000  1.0
  H  H17  1  0.28244000  0.37155000  0.28209000  1.0
  H  H18  1  0.34515000  0.42081000  0.32391000  1.0
  H  H19  1  0.36295000  0.43497000  0.27889000  1.0
  H  H20  1  0.33952000  0.42144000  0.12543000  1.0
  H  H21  1  0.35589000  0.43353000  0.07975000  1.0
  H  H22  1  0.42424000  0.47867000  0.11732000  1.0
  H  H23  1  0.40777000  0.46652000  0.16344000  1.0
  H  H24  1  0.61005000  0.83622000  0.39618000  1.0
  H  H25  1  0.63346000  0.79524000  0.37471000  1.0
  H  H26  1  0.57562000  0.74165000  0.41531000  1.0
  H  H27  1  0.55199000  0.78252000  0.43663000  1.0
  H  H28  1  0.55426000  0.93608000  0.46211000  1.0
  H  H29  1  0.52619000  0.97819000  0.47416000  1.0
  H  H30  1  0.45075000  0.93015000  0.47128000  1.0
  H  H31  1  0.47862000  0.88813000  0.45965000  1.0
  H  H32  1  0.32328000  0.68451000  0.86663000  1.0
  H  H33  1  0.29936000  0.70400000  0.82577000  1.0
  H  H34  1  0.36871000  0.67512000  0.77417000  1.0
  H  H35  1  0.39278000  0.65608000  0.81479000  1.0
  H  H36  1  0.37587000  0.60336000  0.95483000  1.0
  H  H37  1  0.39850000  0.57049000  0.98677000  1.0
  H  H38  1  0.47942000  0.58758000  0.95155000  1.0
  H  H39  1  0.45691000  0.62022000  0.91968000  1.0
  H  H40  1  0.61749000  0.20307000  0.67503000  1.0
  H  H41  1  0.63772000  0.24451000  0.69579000  1.0
  H  H42  1  0.58260000  0.29689000  0.64579000  1.0
  H  H43  1  0.56206000  0.25518000  0.62476000  1.0
  H  H44  1  0.55396000  0.10162000  0.64077000  1.0
  H  H45  1  0.52878000  0.06003000  0.62793000  1.0
  H  H46  1  0.48786000  0.10406000  0.56041000  1.0
  H  H47  1  0.51309000  0.14625000  0.57347000  1.0
  H  H48  1  0.55546000  0.62639000  0.26862000  1.0
  H  H49  1  0.57560000  0.64737000  0.31065000  1.0
  H  H50  1  0.64053000  0.68334000  0.26159000  1.0
  H  H51  1  0.62073000  0.66205000  0.21956000  1.0
  H  H52  1  0.50084000  0.59035000  0.15450000  1.0
  H  H53  1  0.48497000  0.55924000  0.11692000  1.0
  H  H54  1  0.57137000  0.54189000  0.09356000  1.0
  H  H55  1  0.58720000  0.57322000  0.13054000  1.0
  H  H56  1  0.31065000  0.85834000  0.69496000  1.0
  H  H57  1  0.29622000  0.81714000  0.71976000  1.0
  H  H58  1  0.34599000  0.76424000  0.66405000  1.0
  H  H59  1  0.36035000  0.80518000  0.63916000  1.0
  H  H60  1  0.35615000  0.96069000  0.63619000  1.0
  H  H61  1  0.36914000  0.00110000  0.60956000  1.0
  H  H62  1  0.39337000  0.94643000  0.54067000  1.0
  H  H63  1  0.38078000  0.90608000  0.56732000  1.0
  H  H64  1  0.56617000  0.42047000  0.80437000  1.0
  H  H65  1  0.58485000  0.40156000  0.76051000  1.0
  H  H66  1  0.63390000  0.33950000  0.80540000  1.0
  H  H67  1  0.61532000  0.35816000  0.84916000  1.0
  H  H68  1  0.53013000  0.47385000  0.91579000  1.0
  H  H69  1  0.51472000  0.49412000  0.96005000  1.0
  H  H70  1  0.55055000  0.42259000  0.00278000  1.0
  H  H71  1  0.56618000  0.40233000  0.95849000  1.0
  H  H72  1  0.29203000  0.23459000  0.41712000  1.0
  H  H73  1  0.27692000  0.27769000  0.39491000  1.0
  H  H74  1  0.34486000  0.32094000  0.43529000  1.0
  H  H75  1  0.36031000  0.27751000  0.45764000  1.0
  H  H76  1  0.32360000  0.12840000  0.47552000  1.0
  H  H77  1  0.33983000  0.08223000  0.48927000  1.0
  H  H78  1  0.41979000  0.11518000  0.51482000  1.0
  H  H79  1  0.40350000  0.16190000  0.50087000  1.0
  H  H80  1  0.78191000  0.68155000  0.39532000  1.0
  H  H81  1  0.73901000  0.69846000  0.37238000  1.0
  H  H82  1  0.69223000  0.63431000  0.41173000  1.0
  H  H83  1  0.73524000  0.61711000  0.43462000  1.0
  H  H84  1  0.87461000  0.65831000  0.48195000  1.0
  H  H85  1  0.91263000  0.64754000  0.51450000  1.0
  H  H86  1  0.88848000  0.56126000  0.51523000  1.0
  H  H87  1  0.84995000  0.57210000  0.48280000  1.0
  H  H88  1  0.14826000  0.41640000  0.41454000  1.0
  H  H89  1  0.18743000  0.39338000  0.39005000  1.0
  H  H90  1  0.24617000  0.43848000  0.44154000  1.0
  H  H91  1  0.20704000  0.46157000  0.46623000  1.0
  H  H92  1  0.05015000  0.47029000  0.48034000  1.0
  H  H93  1  0.01187000  0.48275000  0.51228000  1.0
  H  H94  1  0.07226000  0.51243000  0.57268000  1.0
  H  H95  1  0.11036000  0.50033000  0.54093000  1.0
  H  H96  1  0.15914000  0.68553000  0.69192000  1.0
  H  H97  1  0.19833000  0.70660000  0.71667000  1.0
  H  H98  1  0.25696000  0.65467000  0.66901000  1.0
  H  H99  1  0.21792000  0.63350000  0.64420000  1.0
  H  H100  1  0.06195000  0.63865000  0.62426000  1.0
  H  H101  1  0.02315000  0.62015000  0.59714000  1.0
  H  H102  1  0.08127000  0.56488000  0.55244000  1.0
  H  H103  1  0.12021000  0.58343000  0.57946000  1.0
  H  H104  1  0.73462000  0.42538000  0.64204000  1.0
  H  H105  1  0.69129000  0.40409000  0.65695000  1.0
  H  H106  1  0.74013000  0.34441000  0.70506000  1.0
  H  H107  1  0.78325000  0.36541000  0.69032000  1.0
  H  H108  1  0.84552000  0.47983000  0.60936000  1.0
  H  H109  1  0.88926000  0.50364000  0.60090000  1.0
  H  H110  1  0.93360000  0.44654000  0.65571000  1.0
  H  H111  1  0.89025000  0.42279000  0.66407000  1.0
  C  C112  1  0.30138000  0.38647000  0.33354000  1.0
  C  C113  1  0.29995000  0.32876000  0.39992000  1.0
  C  C114  1  0.24346000  0.39884000  0.40007000  1.0
  C  C115  1  0.62210000  0.67915000  0.31486000  1.0
  C  C116  1  0.62008000  0.74055000  0.37984000  1.0
  C  C117  1  0.68612000  0.67906000  0.37748000  1.0
  C  C118  1  0.31062000  0.76244000  0.70813000  1.0
  C  C119  1  0.31764000  0.70207000  0.77194000  1.0
  C  C120  1  0.25444000  0.69598000  0.70880000  1.0
  C  C121  1  0.68634000  0.36016000  0.69208000  1.0
  C  C122  1  0.62364000  0.29884000  0.68608000  1.0
  C  C123  1  0.62276000  0.35797000  0.75319000  1.0
  C  C124  1  0.52215000  0.47267000  0.01202000  1.0
  C  C125  1  0.47971000  0.49270000  0.01271000  1.0
  C  C126  1  0.47768000  0.50455000  0.06277000  1.0
  C  C127  1  0.51771000  0.52675000  0.08184000  1.0
  C  C128  1  0.45372000  0.55220000  0.98673000  1.0
  C  C129  1  0.44856000  0.53198000  0.02818000  1.0
  C  C130  1  0.43683000  0.48394000  0.03864000  1.0
  C  C131  1  0.40149000  0.46387000  0.06665000  1.0
  C  C132  1  0.46085000  0.50358000  0.03596000  1.0
  C  C133  1  0.46887000  0.98338000  0.47814000  1.0
  C  C134  1  0.47647000  0.00821000  0.51686000  1.0
  C  C135  1  0.43544000  0.04118000  0.51090000  1.0
  C  C136  1  0.39189000  0.06603000  0.50799000  1.0
  C  C137  1  0.39039000  0.00164000  0.55667000  1.0
  C  C138  1  0.42999000  0.99525000  0.53303000  1.0
  C  C139  1  0.45538000  0.03204000  0.55808000  1.0
  C  C140  1  0.48970000  0.05363000  0.58682000  1.0
  C  C141  1  0.44923000  0.01962000  0.52967000  1.0
  C  C142  1  0.01623000  0.50353000  0.56564000  1.0
  C  C143  1  0.97816000  0.52889000  0.55360000  1.0
  C  C144  1  0.96384000  0.53068000  0.60311000  1.0
  C  C145  1  0.94131000  0.49217000  0.62366000  1.0
  C  C146  1  0.02517000  0.57937000  0.55648000  1.0
  C  C147  1  0.98913000  0.56998000  0.58331000  1.0
  C  C148  1  0.94020000  0.56256000  0.57048000  1.0
  C  C149  1  0.92480000  0.59786000  0.53948000  1.0
  C  C150  1  0.96779000  0.54778000  0.57736000  1.0
  C  C151  1  0.33293000  0.41144000  0.25438000  1.0
  C  C152  1  0.31013000  0.39347000  0.25596000  1.0
  C  C153  1  0.30004000  0.38540000  0.28168000  1.0
  C  C154  1  0.31242000  0.39509000  0.30648000  1.0
  C  C155  1  0.33520000  0.41302000  0.30508000  1.0
  C  C156  1  0.34538000  0.42111000  0.27927000  1.0
  C  C157  1  0.34340000  0.41989000  0.22685000  1.0
  C  C158  1  0.36223000  0.43500000  0.17609000  1.0
  C  C159  1  0.37232000  0.44293000  0.14825000  1.0
  C  C160  1  0.35803000  0.43397000  0.12412000  1.0
  C  C161  1  0.36743000  0.44095000  0.09781000  1.0
  C  C162  1  0.39141000  0.45707000  0.09483000  1.0
  C  C163  1  0.40569000  0.46622000  0.11889000  1.0
  C  C164  1  0.39624000  0.45923000  0.14534000  1.0
  C  C165  1  0.57908000  0.81270000  0.41811000  1.0
  C  C166  1  0.60239000  0.81571000  0.40068000  1.0
  C  C167  1  0.61576000  0.79225000  0.38828000  1.0
  C  C168  1  0.60629000  0.76530000  0.39328000  1.0
  C  C169  1  0.58335000  0.76219000  0.41105000  1.0
  C  C170  1  0.56980000  0.78565000  0.42323000  1.0
  C  C171  1  0.56400000  0.83760000  0.43019000  1.0
  C  C172  1  0.53517000  0.88355000  0.45033000  1.0
  C  C173  1  0.51868000  0.90875000  0.45969000  1.0
  C  C174  1  0.53171000  0.93447000  0.46426000  1.0
  C  C175  1  0.51567000  0.95857000  0.47127000  1.0
  C  C176  1  0.48628000  0.95750000  0.47338000  1.0
  C  C177  1  0.47336000  0.93168000  0.46955000  1.0
  C  C178  1  0.48938000  0.90755000  0.46297000  1.0
  C  C179  1  0.35998000  0.66878000  0.84401000  1.0
  C  C180  1  0.33345000  0.68241000  0.84658000  1.0
  C  C181  1  0.31978000  0.69362000  0.82322000  1.0
  C  C182  1  0.33217000  0.69098000  0.79683000  1.0
  C  C183  1  0.35862000  0.67739000  0.79425000  1.0
  C  C184  1  0.37247000  0.66659000  0.81760000  1.0
  C  C185  1  0.37439000  0.65624000  0.86843000  1.0
  C  C186  1  0.40056000  0.63040000  0.91189000  1.0
  C  C187  1  0.41450000  0.61404000  0.93430000  1.0
  C  C188  1  0.39855000  0.60052000  0.95427000  1.0
  C  C189  1  0.41154000  0.58167000  0.97263000  1.0
  C  C190  1  0.44072000  0.57609000  0.97147000  1.0
  C  C191  1  0.45686000  0.59119000  0.95289000  1.0
  C  C192  1  0.44390000  0.60986000  0.93448000  1.0
  C  C193  1  0.58801000  0.22569000  0.64823000  1.0
  C  C194  1  0.60962000  0.22334000  0.66828000  1.0
  C  C195  1  0.62129000  0.24715000  0.68024000  1.0
  C  C196  1  0.61166000  0.27392000  0.67250000  1.0
  C  C197  1  0.59038000  0.27646000  0.65218000  1.0
  C  C198  1  0.57867000  0.25256000  0.64013000  1.0
  C  C199  1  0.57495000  0.20015000  0.63669000  1.0
  C  C200  1  0.54991000  0.15310000  0.61745000  1.0
  C  C201  1  0.53548000  0.12742000  0.60826000  1.0
  C  C202  1  0.53977000  0.10256000  0.62306000  1.0
  C  C203  1  0.52524000  0.07863000  0.61573000  1.0
  C  C204  1  0.50622000  0.07878000  0.59322000  1.0
  C  C205  1  0.50243000  0.10332000  0.57784000  1.0
  C  C206  1  0.51681000  0.12749000  0.58539000  1.0
  C  C207  1  0.58649000  0.64251000  0.24071000  1.0
  C  C208  1  0.57393000  0.63889000  0.26674000  1.0
  C  C209  1  0.58554000  0.65080000  0.29085000  1.0
  C  C210  1  0.60966000  0.66690000  0.28936000  1.0
  C  C211  1  0.62192000  0.67100000  0.26334000  1.0
  C  C212  1  0.61059000  0.65876000  0.23928000  1.0
  C  C213  1  0.57512000  0.62866000  0.21538000  1.0
  C  C214  1  0.55529000  0.60098000  0.16970000  1.0
  C  C215  1  0.54530000  0.58413000  0.14562000  1.0
  C  C216  1  0.51641000  0.58012000  0.14112000  1.0
  C  C217  1  0.50730000  0.56245000  0.11953000  1.0
  C  C218  1  0.52694000  0.54803000  0.10246000  1.0
  C  C219  1  0.55574000  0.55262000  0.10651000  1.0
  C  C220  1  0.56481000  0.57066000  0.12767000  1.0
  C  C221  1  0.33662000  0.83513000  0.66497000  1.0
  C  C222  1  0.31863000  0.83795000  0.68804000  1.0
  C  C223  1  0.31032000  0.81436000  0.70226000  1.0
  C  C224  1  0.31997000  0.78751000  0.69381000  1.0
  C  C225  1  0.33821000  0.78468000  0.67104000  1.0
  C  C226  1  0.34639000  0.80820000  0.65674000  1.0
  C  C227  1  0.34489000  0.85997000  0.64931000  1.0
  C  C228  1  0.35960000  0.90539000  0.62008000  1.0
  C  C229  1  0.36745000  0.93007000  0.60396000  1.0
  C  C230  1  0.36427000  0.95726000  0.61538000  1.0
  C  C231  1  0.37173000  0.98046000  0.60010000  1.0
  C  C232  1  0.38240000  0.97702000  0.57300000  1.0
  C  C233  1  0.38541000  0.94987000  0.56154000  1.0
  C  C234  1  0.37815000  0.92667000  0.57687000  1.0
  C  C235  1  0.58924000  0.39089000  0.83038000  1.0
  C  C236  1  0.58089000  0.40276000  0.80493000  1.0
  C  C237  1  0.59155000  0.39193000  0.77976000  1.0
  C  C238  1  0.61084000  0.36911000  0.77956000  1.0
  C  C239  1  0.61907000  0.35714000  0.80491000  1.0
  C  C240  1  0.60836000  0.36786000  0.83002000  1.0
  C  C241  1  0.57841000  0.40257000  0.85719000  1.0
  C  C242  1  0.55940000  0.42435000  0.90653000  1.0
  C  C243  1  0.54945000  0.43644000  0.93349000  1.0
  C  C244  1  0.53469000  0.46236000  0.93457000  1.0
  C  C245  1  0.52582000  0.47400000  0.96002000  1.0
  C  C246  1  0.53137000  0.45997000  0.98499000  1.0
  C  C247  1  0.54594000  0.43397000  0.98393000  1.0
  C  C248  1  0.55491000  0.42236000  0.95849000  1.0
  C  C249  1  0.32740000  0.25251000  0.43928000  1.0
  C  C250  1  0.30383000  0.25321000  0.42139000  1.0
  C  C251  1  0.29516000  0.27795000  0.40855000  1.0
  C  C252  1  0.30971000  0.30267000  0.41336000  1.0
  C  C253  1  0.33326000  0.30215000  0.43121000  1.0
  C  C254  1  0.34209000  0.27727000  0.44399000  1.0
  C  C255  1  0.33641000  0.22594000  0.45262000  1.0
  C  C256  1  0.35301000  0.17648000  0.47561000  1.0
  C  C257  1  0.36235000  0.14894000  0.48671000  1.0
  C  C258  1  0.34459000  0.12604000  0.48426000  1.0
  C  C259  1  0.35389000  0.09945000  0.49222000  1.0
  C  C260  1  0.38119000  0.09497000  0.50294000  1.0
  C  C261  1  0.39862000  0.11798000  0.50662000  1.0
  C  C262  1  0.38930000  0.14473000  0.49854000  1.0
  C  C263  1  0.76206000  0.64800000  0.41691000  1.0
  C  C264  1  0.76255000  0.67090000  0.39902000  1.0
  C  C265  1  0.73796000  0.68059000  0.38580000  1.0
  C  C266  1  0.71228000  0.66777000  0.39036000  1.0
  C  C267  1  0.71175000  0.64463000  0.40788000  1.0
  C  C268  1  0.73642000  0.63474000  0.42092000  1.0
  C  C269  1  0.78789000  0.63881000  0.43209000  1.0
  C  C270  1  0.83445000  0.62345000  0.46206000  1.0
  C  C271  1  0.85906000  0.61611000  0.47991000  1.0
  C  C272  1  0.87751000  0.63695000  0.48875000  1.0
  C  C273  1  0.89930000  0.63081000  0.50749000  1.0
  C  C274  1  0.90346000  0.60358000  0.51751000  1.0
  C  C275  1  0.88582000  0.58242000  0.50780000  1.0
  C  C276  1  0.86367000  0.58868000  0.48935000  1.0
  C  C277  1  0.17440000  0.44079000  0.44250000  1.0
  C  C278  1  0.16948000  0.42163000  0.42058000  1.0
  C  C279  1  0.19195000  0.40837000  0.40653000  1.0
  C  C280  1  0.21984000  0.41405000  0.41398000  1.0
  C  C281  1  0.22487000  0.43366000  0.43539000  1.0
  C  C282  1  0.20239000  0.44687000  0.44954000  1.0
  C  C283  1  0.15058000  0.45347000  0.45861000  1.0
  C  C284  1  0.10699000  0.47428000  0.48993000  1.0
  C  C285  1  0.08343000  0.48401000  0.50813000  1.0
  C  C286  1  0.05526000  0.47969000  0.50034000  1.0
  C  C287  1  0.03328000  0.48687000  0.51861000  1.0
  C  C288  1  0.03906000  0.49825000  0.54511000  1.0
  C  C289  1  0.06711000  0.50340000  0.55251000  1.0
  C  C290  1  0.08900000  0.49651000  0.53421000  1.0
  C  C291  1  0.18530000  0.65784000  0.66594000  1.0
  C  C292  1  0.18035000  0.67847000  0.68674000  1.0
  C  C293  1  0.20281000  0.69055000  0.70099000  1.0
  C  C294  1  0.23067000  0.68230000  0.69473000  1.0
  C  C295  1  0.23568000  0.66145000  0.67427000  1.0
  C  C296  1  0.21325000  0.64933000  0.66003000  1.0
  C  C297  1  0.16153000  0.64564000  0.65018000  1.0
  C  C298  1  0.11800000  0.62404000  0.62053000  1.0
  C  C299  1  0.09429000  0.61253000  0.60414000  1.0
  C  C300  1  0.06654000  0.62251000  0.60871000  1.0
  C  C301  1  0.04421000  0.61185000  0.59316000  1.0
  C  C302  1  0.04906000  0.59090000  0.57274000  1.0
  C  C303  1  0.07679000  0.58096000  0.56807000  1.0
  C  C304  1  0.09914000  0.59163000  0.58361000  1.0
  C  C305  1  0.76251000  0.39720000  0.66501000  1.0
  C  C306  1  0.73614000  0.40765000  0.65571000  1.0
  C  C307  1  0.71130000  0.39548000  0.66423000  1.0
  C  C308  1  0.71236000  0.37266000  0.68221000  1.0
  C  C309  1  0.73864000  0.36202000  0.69122000  1.0
  C  C310  1  0.76340000  0.37411000  0.68273000  1.0
  C  C311  1  0.78897000  0.41048000  0.65694000  1.0
  C  C312  1  0.83766000  0.43544000  0.64373000  1.0
  C  C313  1  0.86426000  0.44943000  0.63751000  1.0
  C  C314  1  0.86462000  0.47229000  0.61952000  1.0
  C  C315  1  0.88971000  0.48593000  0.61463000  1.0
  C  C316  1  0.91489000  0.47708000  0.62773000  1.0
  C  C317  1  0.91457000  0.45400000  0.64536000  1.0
  C  C318  1  0.88962000  0.44033000  0.65014000  1.0
  N  N319  1  0.36597000  0.43649000  0.22469000  1.0
  N  N320  1  0.37520000  0.44388000  0.19982000  1.0
  N  N321  1  0.33969000  0.41845000  0.17833000  1.0
  N  N322  1  0.33050000  0.41107000  0.20312000  1.0
  N  N323  1  0.53801000  0.83535000  0.44129000  1.0
  N  N324  1  0.52387000  0.85785000  0.45107000  1.0
  N  N325  1  0.56132000  0.88578000  0.43954000  1.0
  N  N326  1  0.57542000  0.86328000  0.42962000  1.0
  N  N327  1  0.40226000  0.64925000  0.86743000  1.0
  N  N328  1  0.41506000  0.63665000  0.88870000  1.0
  N  N329  1  0.37271000  0.63763000  0.91303000  1.0
  N  N330  1  0.35991000  0.65040000  0.89178000  1.0
  N  N331  1  0.55476000  0.20161000  0.61652000  1.0
  N  N332  1  0.54251000  0.17854000  0.60707000  1.0
  N  N333  1  0.57022000  0.15169000  0.63742000  1.0
  N  N334  1  0.58247000  0.17468000  0.64679000  1.0
  N  N335  1  0.59146000  0.62448000  0.19254000  1.0
  N  N336  1  0.58178000  0.61082000  0.17022000  1.0
  N  N337  1  0.53879000  0.60549000  0.19240000  1.0
  N  N338  1  0.54854000  0.61899000  0.21480000  1.0
  N  N339  1  0.35891000  0.85687000  0.62488000  1.0
  N  N340  1  0.36608000  0.87908000  0.61057000  1.0
  N  N341  1  0.34565000  0.90852000  0.64457000  1.0
  N  N342  1  0.33840000  0.88628000  0.65886000  1.0
  N  N343  1  0.58507000  0.38993000  0.88154000  1.0
  N  N344  1  0.57575000  0.40057000  0.90568000  1.0
  N  N345  1  0.55267000  0.43696000  0.88217000  1.0
  N  N346  1  0.56196000  0.42629000  0.85801000  1.0
  N  N347  1  0.36122000  0.22348000  0.46677000  1.0
  N  N348  1  0.36939000  0.19922000  0.47798000  1.0
  N  N349  1  0.32815000  0.17910000  0.46168000  1.0
  N  N350  1  0.32004000  0.20326000  0.45045000  1.0
  N  N351  1  0.78924000  0.61405000  0.44553000  1.0
  N  N352  1  0.81207000  0.60650000  0.46017000  1.0
  N  N353  1  0.83317000  0.64808000  0.44845000  1.0
  N  N354  1  0.81042000  0.65555000  0.43372000  1.0
  N  N355  1  0.15536000  0.46951000  0.48167000  1.0
  N  N356  1  0.13404000  0.47966000  0.49700000  1.0
  N  N357  1  0.10217000  0.45851000  0.46668000  1.0
  N  N358  1  0.12351000  0.44832000  0.45136000  1.0
  N  N359  1  0.16623000  0.62565000  0.63016000  1.0
  N  N360  1  0.14494000  0.61507000  0.61566000  1.0
  N  N361  1  0.11329000  0.64396000  0.64061000  1.0
  N  N362  1  0.13458000  0.65454000  0.65511000  1.0
  N  N363  1  0.81411000  0.40064000  0.66685000  1.0
  N  N364  1  0.83791000  0.41284000  0.66041000  1.0
  N  N365  1  0.81253000  0.44523000  0.63363000  1.0
  N  N366  1  0.78867000  0.43301000  0.64011000  1.0
  O  O367  1  0.26996000  0.40343000  0.40566000  1.0
  O  O368  1  0.23968000  0.37885000  0.38161000  1.0
  O  O369  1  0.27901000  0.32958000  0.38211000  1.0
  O  O370  1  0.31098000  0.35311000  0.40497000  1.0
  O  O371  1  0.28032000  0.36966000  0.33554000  1.0
  O  O372  1  0.31153000  0.39490000  0.35758000  1.0
  O  O373  1  0.66107000  0.67058000  0.38378000  1.0
  O  O374  1  0.68591000  0.69913000  0.35935000  1.0
  O  O375  1  0.63922000  0.74231000  0.36057000  1.0
  O  O376  1  0.61408000  0.71487000  0.38596000  1.0
  O  O377  1  0.64143000  0.69805000  0.31449000  1.0
  O  O378  1  0.61488000  0.67194000  0.33989000  1.0
  O  O379  1  0.25110000  0.71592000  0.72762000  1.0
  O  O380  1  0.28075000  0.68993000  0.70280000  1.0
  O  O381  1  0.32581000  0.69566000  0.74662000  1.0
  O  O382  1  0.29556000  0.71909000  0.77313000  1.0
  O  O383  1  0.31981000  0.73717000  0.70146000  1.0
  O  O384  1  0.29190000  0.76334000  0.72800000  1.0
  O  O385  1  0.64208000  0.33792000  0.75232000  1.0
  O  O386  1  0.61533000  0.36737000  0.72870000  1.0
  O  O387  1  0.61568000  0.32456000  0.68031000  1.0
  O  O388  1  0.64304000  0.29700000  0.70545000  1.0
  O  O389  1  0.66105000  0.36880000  0.68456000  1.0
  O  O390  1  0.68663000  0.33962000  0.70967000  1.0
  O  O391  1  0.52786000  0.46098000  0.03385000  1.0
  O  O392  1  0.50800000  0.49826000  0.01268000  1.0
  O  O393  1  0.49122000  0.52788000  0.07105000  1.0
  O  O394  1  0.53426000  0.50799000  0.07447000  1.0
  O  O395  1  0.47849000  0.54564000  0.98270000  1.0
  O  O396  1  0.43694000  0.53501000  0.00191000  1.0
  O  O397  1  0.42484000  0.47925000  0.06364000  1.0
  O  O398  1  0.38867000  0.45543000  0.04611000  1.0
  O  O399  1  0.44394000  0.98378000  0.47159000  1.0
  O  O400  1  0.48063000  0.00756000  0.48841000  1.0
  O  O401  1  0.41702000  0.06107000  0.52086000  1.0
  O  O402  1  0.37818000  0.04624000  0.49974000  1.0
  O  O403  1  0.38660000  0.02531000  0.56625000  1.0
  O  O404  1  0.40113000  0.99814000  0.53021000  1.0
  O  O405  1  0.47596000  0.05079000  0.56205000  1.0
  O  O406  1  0.48876000  0.03512000  0.60403000  1.0
  O  O407  1  0.02232000  0.50779000  0.59009000  1.0
  O  O408  1  0.98821000  0.50188000  0.55806000  1.0
  O  O409  1  0.94234000  0.51276000  0.60462000  1.0
  O  O410  1  0.96224000  0.48586000  0.63746000  1.0
  O  O411  1  0.02973000  0.56344000  0.53674000  1.0
  O  O412  1  0.99777000  0.58738000  0.56267000  1.0
  O  O413  1  0.93425000  0.57133000  0.54437000  1.0
  O  O414  1  0.93386000  0.61727000  0.55350000  1.0
