# generated using pymatgen
data_CdH50C47N6
_symmetry_space_group_name_H-M   'P 1'
_cell_length_a   11.57555000
_cell_length_b   24.75000000
_cell_length_c   31.32460000
_cell_angle_alpha   106.32300000
_cell_angle_beta   95.99400000
_cell_angle_gamma   92.05100000
_symmetry_Int_Tables_number   1
_chemical_formula_structural   CdH50C47N6
_chemical_formula_sum   'Cd4 H200 C188 N24'
_cell_volume   8545.54711465
_cell_formula_units_Z   4
loop_
 _symmetry_equiv_pos_site_id
 _symmetry_equiv_pos_as_xyz
  1  'x, y, z'
loop_
 _atom_site_type_symbol
 _atom_site_label
 _atom_site_symmetry_multiplicity
 _atom_site_fract_x
 _atom_site_fract_y
 _atom_site_fract_z
 _atom_site_occupancy
  C  C0  1  0.19416000  0.66577000  0.90333500  1.0
  C  C1  1  0.42965000  0.56851500  0.90472000  1.0
  C  C2  1  0.33956000  0.62798500  0.78642000  1.0
  C  C3  1  0.47267000  0.70692500  0.79747000  1.0
  C  C4  1  0.66951000  0.69212000  0.87795000  1.0
  C  C5  1  0.39396000  0.79995000  0.90165500  1.0
  C  C6  1  0.33905000  0.07687500  0.89705000  1.0
  C  C7  1  0.22932000  0.19318000  0.78682000  1.0
  C  C8  1  0.22784000  0.19870500  0.83240500  1.0
  C  C9  1  0.41370000  0.16230000  0.83665500  1.0
  C  C10  1  0.41934000  0.15682500  0.79134000  1.0
  C  C11  1  0.29189000  0.31195000  0.91759000  1.0
  C  C12  1  0.35165000  0.44268000  0.91941000  1.0
  C  C13  1  0.42190000  0.41541500  0.88164000  1.0
  C  C14  1  0.21799000  0.35166000  0.90267000  1.0
  C  C15  1  0.36005000  0.90206500  0.92564500  1.0
  C  C16  1  0.35346000  0.94267500  0.90090000  1.0
  C  C17  1  0.41970000  0.99568500  0.91813500  1.0
  C  C18  1  0.42971000  0.03625500  0.88984500  1.0
  C  C19  1  0.27656000  0.92920000  0.85644500  1.0
  C  C20  1  0.30545000  0.84171500  0.90553500  1.0
  C  C21  1  0.93799000  0.68593000  0.91102000  1.0
  C  C22  1  0.85339000  0.72609000  0.92348000  1.0
  C  C23  1  0.76414000  0.73620500  0.88807500  1.0
  C  C24  1  0.94007000  0.65434500  0.86178500  1.0
  C  C25  1  0.64840000  0.25711000  0.92602000  1.0
  C  C26  1  0.33100000  0.61828500  0.73998000  1.0
  C  C27  1  0.39578000  0.65338000  0.72164000  1.0
  C  C28  1  0.46686000  0.69859500  0.75117000  1.0
  C  C29  1  0.32670000  0.17258000  0.76579500  1.0
  C  C30  1  0.45949000  0.67972500  0.65288500  1.0
  C  C31  1  0.57396000  0.66710000  0.64187500  1.0
  C  C32  1  0.63321000  0.69950500  0.61839500  1.0
  C  C33  1  0.47609000  0.76339500  0.62715500  1.0
  C  C34  1  0.41252000  0.72921500  0.64632000  1.0
  C  C35  1  0.29377000  0.74613000  0.65882500  1.0
  C  C36  1  0.63287000  0.61949000  0.65518000  1.0
  C  C37  1  0.38616000  0.64040000  0.67095000  1.0
  C  C38  1  0.22623000  0.14188000  0.68577500  1.0
  C  C39  1  0.14234000  0.17474500  0.66955500  1.0
  C  C40  1  0.04971000  0.14715500  0.63553000  1.0
  C  C41  1  0.03502000  0.08731000  0.62217500  1.0
  C  C42  1  0.11463000  0.05616500  0.64013500  1.0
  C  C43  1  0.20930000  0.08219500  0.67139000  1.0
  C  C44  1  0.29230000  0.04492000  0.68826500  1.0
  C  C45  1  0.14895000  0.23863500  0.68841000  1.0
  C  C46  1  0.33580000  0.16894000  0.71717500  1.0
  C  C47  1  0.96598000  0.18054500  0.61329000  1.0
  C  C48  1  0.58573000  0.75002500  0.61392000  1.0
  C  C49  1  0.64874000  0.79066500  0.59478000  1.0
  C  C50  1  0.75078000  0.68310000  0.60180000  1.0
  C  C51  1  0.93607000  0.05492000  0.58826000  1.0
  C  C52  1  0.98785000  0.17602500  0.56574500  1.0
  C  C53  1  0.08976000  0.20103000  0.55689500  1.0
  C  C54  1  0.90208000  0.15090000  0.52991000  1.0
  C  C55  1  0.85656000  0.70756500  0.54237000  1.0
  C  C56  1  0.75905000  0.68147000  0.55349500  1.0
  C  C57  1  0.67524000  0.65053000  0.51879500  1.0
  C  C58  1  0.10302000  0.20119500  0.51305500  1.0
  C  C59  1  0.73158000  0.38345500  0.50004000  1.0
  C  C60  1  0.92011000  0.15065000  0.48651500  1.0
  C  C61  1  0.86809000  0.70272000  0.49751500  1.0
  C  C62  1  0.13476000  0.03616000  0.48643000  1.0
  C  C63  1  0.12490000  0.64175000  0.93104500  1.0
  C  C64  1  0.25754000  0.41183000  0.93031500  1.0
  C  C65  1  0.47930000  0.53498500  0.93336000  1.0
  C  C66  1  0.42854000  0.75292000  0.02848000  1.0
  C  C67  1  0.52565000  0.73326500  0.04867000  1.0
  C  C68  1  0.40085000  0.73487000  0.98203500  1.0
  C  C69  1  0.56453000  0.67990500  0.97449500  1.0
  C  C70  1  0.59344000  0.69570000  0.02104500  1.0
  C  C71  1  0.09634000  0.22194500  0.96443000  1.0
  C  C72  1  0.56159000  0.21968000  0.93628500  1.0
  C  C73  1  0.36281000  0.25952500  0.07240500  1.0
  C  C74  1  0.32464000  0.21449500  0.08754000  1.0
  C  C75  1  0.36243000  0.25255500  0.02659500  1.0
  C  C76  1  0.28964000  0.15734000  0.00998000  1.0
  C  C77  1  0.28850000  0.16256500  0.05559500  1.0
  C  C78  1  0.82303000  0.22385000  0.43170500  1.0
  C  C79  1  0.00884000  0.06077000  0.40580000  1.0
  C  C80  1  0.94861000  0.10771500  0.26816000  1.0
  C  C81  1  0.01180000  0.14155500  0.24825000  1.0
  C  C82  1  0.95770000  0.12052000  0.31492000  1.0
  C  C83  1  0.08675000  0.19971500  0.32247500  1.0
  C  C84  1  0.07978000  0.18868500  0.27606000  1.0
  C  C85  1  0.28885000  0.20864500  0.40227000  1.0
  C  C86  1  0.03721000  0.29903000  0.40900000  1.0
  C  C87  1  0.58807000  0.70110000  0.39011500  1.0
  C  C88  1  0.84171000  0.55545000  0.41570500  1.0
  C  C89  1  0.83892000  0.60249000  0.25223000  1.0
  C  C90  1  0.79678000  0.64500500  0.23452000  1.0
  C  C91  1  0.84202000  0.60879000  0.29803500  1.0
  C  C92  1  0.76241000  0.69780000  0.30933000  1.0
  C  C93  1  0.75793000  0.69318000  0.26362000  1.0
  C  C94  1  0.05751000  0.65236500  0.37635000  1.0
  C  C95  1  0.90755000  0.77690500  0.39960500  1.0
  C  C96  1  0.69005000  0.64673500  0.47425000  1.0
  C  C97  1  0.38360000  0.49971500  0.94536500  1.0
  C  C98  1  0.32328000  0.52448000  0.98241500  1.0
  C  C99  1  0.23613000  0.49264000  0.99396500  1.0
  C  C100  1  0.20334000  0.43697000  0.96901500  1.0
  C  C101  1  0.10874000  0.40562000  0.98423500  1.0
  C  C102  1  0.35506000  0.58379500  0.01214000  1.0
  C  C103  1  0.27817000  0.17455000  0.15203500  1.0
  C  C104  1  0.15929000  0.16903000  0.15937500  1.0
  C  C105  1  0.12343000  0.12871500  0.18113500  1.0
  C  C106  1  0.20217000  0.08853500  0.18822000  1.0
  C  C107  1  0.31582000  0.09185000  0.17736000  1.0
  C  C108  1  0.35494000  0.13404500  0.15961500  1.0
  C  C109  1  0.48045000  0.13607000  0.15063000  1.0
  C  C110  1  0.16972000  0.04296500  0.20917500  1.0
  C  C111  1  0.00348000  0.12865000  0.19782000  1.0
  C  C112  1  0.07162000  0.20616500  0.14453500  1.0
  C  C113  1  0.32489000  0.22432000  0.13758500  1.0
  C  C114  1  0.90514000  0.36865000  0.39096500  1.0
  C  C115  1  0.92325000  0.42450000  0.42069500  1.0
  C  C116  1  0.82963000  0.46095500  0.42521000  1.0
  C  C117  1  0.71647000  0.43896000  0.40408000  1.0
  C  C118  1  0.69920000  0.38297000  0.37751000  1.0
  C  C119  1  0.79080000  0.34751500  0.37099000  1.0
  C  C120  1  0.76426000  0.28864500  0.33972000  1.0
  C  C121  1  0.61274000  0.47476500  0.40829000  1.0
  C  C122  1  0.85025000  0.52392000  0.44904000  1.0
  C  C123  1  0.04161000  0.44579000  0.44698000  1.0
  C  C124  1  0.00736000  0.33313500  0.37817500  1.0
  C  C125  1  0.68462000  0.65130000  0.16186500  1.0
  C  C126  1  0.67956000  0.69117000  0.13644500  1.0
  C  C127  1  0.56891000  0.70757000  0.12134500  1.0
  C  C128  1  0.46591000  0.68029500  0.12860500  1.0
  C  C129  1  0.47356000  0.63627000  0.14826500  1.0
  C  C130  1  0.58069000  0.62037500  0.16377500  1.0
  C  C131  1  0.57970000  0.57163000  0.18388500  1.0
  C  C132  1  0.34622000  0.69801500  0.11660000  1.0
  C  C133  1  0.55812000  0.75493000  0.09896000  1.0
  C  C134  1  0.79206000  0.71659500  0.12692500  1.0
  C  C135  1  0.80011000  0.63993000  0.18540000  1.0
  C  C136  1  0.01994000  0.86566000  0.40615500  1.0
  C  C137  1  0.95253000  0.91098500  0.40083000  1.0
  C  C138  1  0.99473000  0.96800000  0.42331500  1.0
  C  C139  1  0.09172000  0.97791500  0.45706500  1.0
  C  C140  1  0.15284000  0.93265000  0.46356000  1.0
  C  C141  1  0.11900000  0.87707500  0.43872500  1.0
  C  C142  1  0.19162000  0.83079500  0.44717000  1.0
  C  C143  1  0.93083000  0.01737000  0.41412000  1.0
  C  C144  1  0.83628000  0.89877000  0.37138500  1.0
  C  C145  1  0.98652000  0.80536000  0.37779000  1.0
  C  C146  1  0.47799000  0.01052500  0.96234000  1.0
  C  C147  1  0.47577000  0.97211000  0.98744500  1.0
  C  C148  1  0.41784000  0.91868000  0.97009000  1.0
  C  C149  1  0.42309000  0.87982000  0.99963500  1.0
  C  C150  1  0.54610000  0.06662000  0.98329500  1.0
  C  C151  1  0.02394000  0.67805000  0.94444500  1.0
  C  C152  1  0.84808000  0.75370000  0.96941000  1.0
  C  C153  1  0.92861000  0.74284500  0.00185500  1.0
  C  C154  1  0.01579000  0.70565500  0.99024500  1.0
  C  C155  1  0.09937000  0.69675500  0.02756000  1.0
  C  C156  1  0.76038000  0.79663000  0.98480000  1.0
  C  C157  1  0.74461000  0.27622000  0.96483500  1.0
  C  C158  1  0.83737000  0.24110000  0.96912500  1.0
  C  C159  1  0.93300000  0.26192000  0.00330000  1.0
  C  C160  1  0.92950000  0.31552500  0.03489000  1.0
  C  C161  1  0.83330000  0.34741500  0.03193500  1.0
  C  C162  1  0.74102000  0.32859500  0.99775000  1.0
  C  C163  1  0.64114000  0.36599500  0.99657500  1.0
  C  C164  1  0.02606000  0.33954500  0.07263000  1.0
  C  C165  1  0.03914000  0.22784500  0.00497500  1.0
  C  C166  1  0.83714000  0.18316500  0.93537000  1.0
  C  C167  1  0.46924000  0.26513500  0.40869500  1.0
  C  C168  1  0.56719000  0.24391500  0.42841000  1.0
  C  C169  1  0.65984000  0.28229500  0.45476500  1.0
  C  C170  1  0.64289000  0.34087000  0.46815000  1.0
  C  C171  1  0.54063000  0.36049500  0.45193000  1.0
  C  C172  1  0.45583000  0.32399000  0.42144500  1.0
  C  C173  1  0.35217000  0.34900500  0.40282000  1.0
  C  C174  1  0.77369000  0.26079000  0.46983500  1.0
  C  C175  1  0.57366000  0.18058000  0.42013000  1.0
  C  C176  1  0.37588000  0.22507500  0.37655500  1.0
  C  C177  1  0.22066000  0.68299000  0.34271500  1.0
  C  C178  1  0.32195000  0.69803500  0.37473000  1.0
  C  C179  1  0.40617000  0.74013000  0.37184000  1.0
  C  C180  1  0.38361000  0.76931000  0.33912000  1.0
  C  C181  1  0.27978000  0.75659000  0.31018500  1.0
  C  C182  1  0.19843000  0.71425500  0.31149500  1.0
  C  C183  1  0.08923000  0.70287500  0.27867000  1.0
  C  C184  1  0.46859000  0.81427000  0.33415000  1.0
  C  C185  1  0.52174000  0.75131500  0.40175000  1.0
  C  C186  1  0.34380000  0.66602000  0.40950000  1.0
  C  C187  1  0.13652000  0.63412000  0.34211000  1.0
  Cd  Cd188  1  0.42872000  0.67895500  0.88439500  1.0
  Cd  Cd189  1  0.31466000  0.19714500  0.92672000  1.0
  Cd  Cd190  1  0.04437000  0.18224500  0.41292500  1.0
  Cd  Cd191  1  0.81770000  0.66454000  0.39663000  1.0
  H  H192  1  0.29067000  0.60018500  0.80010000  1.0
  H  H193  1  0.52938000  0.74105500  0.81966000  1.0
  H  H194  1  0.15346000  0.21540500  0.84843500  1.0
  H  H195  1  0.48470000  0.14899500  0.85551500  1.0
  H  H196  1  0.54575000  0.50922000  0.91600000  1.0
  H  H197  1  0.41686000  0.43946500  0.85652000  1.0
  H  H198  1  0.39510000  0.37096500  0.86357000  1.0
  H  H199  1  0.51406000  0.41506500  0.89549500  1.0
  H  H200  1  0.21898000  0.34576000  0.86634500  1.0
  H  H201  1  0.12626000  0.34027000  0.90542000  1.0
  H  H202  1  0.51588000  0.06008000  0.89772000  1.0
  H  H203  1  0.42498000  0.01358000  0.85368000  1.0
  H  H204  1  0.19084000  0.90954500  0.85898000  1.0
  H  H205  1  0.32002000  0.90048000  0.82985000  1.0
  H  H206  1  0.25381000  0.96708500  0.84610500  1.0
  H  H207  1  0.25865000  0.83366500  0.87156000  1.0
  H  H208  1  0.24032000  0.83269000  0.92662500  1.0
  H  H209  1  0.72802000  0.77810500  0.89863000  1.0
  H  H210  1  0.80283000  0.73556500  0.85703000  1.0
  H  H211  1  0.85129000  0.64115500  0.84409500  1.0
  H  H212  1  0.98336000  0.61430500  0.85650000  1.0
  H  H213  1  0.98488000  0.68177500  0.84512000  1.0
  H  H214  1  0.09247000  0.59784500  0.91258500  1.0
  H  H215  1  0.74872000  0.16177000  0.92602500  1.0
  H  H216  1  0.87186000  0.18763000  0.90471500  1.0
  H  H217  1  0.68338000  0.23458500  0.89468000  1.0
  H  H218  1  0.60467000  0.29280500  0.91810500  1.0
  H  H219  1  0.27496000  0.58310500  0.71842500  1.0
  H  H220  1  0.51865000  0.72702000  0.73903500  1.0
  H  H221  1  0.15526000  0.20530000  0.76858500  1.0
  H  H222  1  0.49576000  0.14037500  0.77641000  1.0
  H  H223  1  0.43940000  0.80126000  0.62237500  1.0
  H  H224  1  0.27955000  0.79024500  0.65869000  1.0
  H  H225  1  0.28400000  0.74365000  0.69311000  1.0
  H  H226  1  0.22535000  0.71790000  0.63445500  1.0
  H  H227  1  0.82068000  0.71209000  0.62486000  1.0
  H  H228  1  0.62546000  0.58125500  0.62594500  1.0
  H  H229  1  0.59645000  0.60887500  0.68336000  1.0
  H  H230  1  0.72584000  0.63206500  0.66798500  1.0
  H  H231  1  0.40575000  0.59580500  0.65636000  1.0
  H  H232  1  0.29286000  0.63938000  0.65797000  1.0
  H  H233  1  0.10321000  0.01048500  0.62922500  1.0
  H  H234  1  0.26039000  0.99971500  0.67624000  1.0
  H  H235  1  0.30248000  0.05683000  0.72539000  1.0
  H  H236  1  0.37830000  0.04854000  0.67624000  1.0
  H  H237  1  0.87478000  0.16648000  0.61482000  1.0
  H  H238  1  0.97192000  0.22603000  0.63124500  1.0
  H  H239  1  0.17450000  0.25879500  0.66304000  1.0
  H  H240  1  0.20923000  0.25588500  0.71941500  1.0
  H  H241  1  0.06341000  0.25256000  0.69867500  1.0
  H  H242  1  0.36086000  0.21130000  0.71449500  1.0
  H  H243  1  0.41172000  0.14515000  0.70559500  1.0
  H  H244  1  0.15720000  0.22152000  0.58367500  1.0
  H  H245  1  0.74322000  0.79540000  0.60676500  1.0
  H  H246  1  0.61629000  0.83354000  0.60552500  1.0
  H  H247  1  0.76998000  0.64004000  0.60295000  1.0
  H  H248  1  0.85159000  0.07268000  0.59597500  1.0
  H  H249  1  0.92680000  0.01005000  0.58818000  1.0
  H  H250  1  0.92417000  0.73096000  0.56811000  1.0
  H  H251  1  0.63476000  0.77576500  0.55762000  1.0
  H  H252  1  0.82141000  0.13186000  0.53538500  1.0
  H  H253  1  0.60045000  0.62866500  0.52599500  1.0
  H  H254  1  0.95249000  0.05529500  0.55417500  1.0
  H  H255  1  0.18123000  0.03445500  0.51886000  1.0
  H  H256  1  0.74896000  0.37225500  0.53193500  1.0
  H  H257  1  0.18004000  0.22222000  0.50689500  1.0
  H  H258  1  0.70130000  0.42688500  0.50826500  1.0
  H  H259  1  0.94410000  0.72238000  0.48922500  1.0
  H  H260  1  0.03182000  0.46695500  0.48255500  1.0
  H  H261  1  0.22860000  0.94094000  0.48848000  1.0
  H  H262  1  0.25376000  0.84601500  0.47823000  1.0
  H  H263  1  0.06162000  0.06317000  0.49490500  1.0
  H  H264  1  0.81369000  0.38440500  0.48484500  1.0
  H  H265  1  0.84212000  0.29455500  0.48668500  1.0
  H  H266  1  0.75848000  0.23749000  0.49445500  1.0
  H  H267  1  0.37427000  0.78223500  0.04845500  1.0
  H  H268  1  0.32601000  0.75055500  0.96708500  1.0
  H  H269  1  0.61891000  0.65209500  0.95358500  1.0
  H  H270  1  0.66866000  0.67909500  0.03492000  1.0
  H  H271  1  0.39164000  0.30012000  0.09593000  1.0
  H  H272  1  0.39000000  0.28779000  0.01535000  1.0
  H  H273  1  0.25925000  0.11774500  0.98578000  1.0
  H  H274  1  0.25853000  0.12638500  0.06528000  1.0
  H  H275  1  0.89318000  0.07156000  0.24779500  1.0
  H  H276  1  0.90859000  0.09439500  0.33000500  1.0
  H  H277  1  0.13872000  0.23620500  0.34312000  1.0
  H  H278  1  0.12732000  0.21669500  0.26204500  1.0
  H  H279  1  0.85317000  0.13108500  0.45934000  1.0
  H  H280  1  0.87059000  0.56490500  0.23091500  1.0
  H  H281  1  0.87645000  0.57592500  0.31099500  1.0
  H  H282  1  0.73142000  0.73481000  0.33132000  1.0
  H  H283  1  0.72551000  0.72704000  0.25120000  1.0
  H  H284  1  0.62681000  0.62143500  0.44777000  1.0
  H  H285  1  0.19302000  0.51158500  0.02312500  1.0
  H  H286  1  0.08910000  0.42835000  0.01838500  1.0
  H  H287  1  0.13609000  0.36348000  0.98546500  1.0
  H  H288  1  0.02741000  0.40058000  0.96089500  1.0
  H  H289  1  0.36275000  0.61366000  0.99190000  1.0
  H  H290  1  0.43898000  0.58504000  0.03324000  1.0
  H  H291  1  0.28771000  0.59893500  0.03461500  1.0
  H  H292  1  0.52933000  0.56350000  0.96392000  1.0
  H  H293  1  0.37580000  0.06158000  0.18370500  1.0
  H  H294  1  0.52082000  0.09590000  0.15019000  1.0
  H  H295  1  0.53121000  0.17064000  0.17722500  1.0
  H  H296  1  0.48716000  0.14296000  0.11745000  1.0
  H  H297  1  0.22837000  0.00781000  0.20148500  1.0
  H  H298  1  0.08020000  0.02409500  0.19607500  1.0
  H  H299  1  0.17704000  0.06077500  0.24613000  1.0
  H  H300  1  0.94897000  0.16080500  0.18938000  1.0
  H  H301  1  0.95424000  0.08757000  0.18073500  1.0
  H  H302  1  0.05490000  0.24129500  0.17374500  1.0
  H  H303  1  0.98914000  0.18105500  0.12854500  1.0
  H  H304  1  0.09992000  0.22375000  0.11818000  1.0
  H  H305  1  0.41494000  0.23826500  0.15402500  1.0
  H  H306  1  0.27760000  0.26247000  0.15137000  1.0
  H  H307  1  0.61284000  0.36678500  0.36099500  1.0
  H  H308  1  0.67180000  0.27395000  0.33856500  1.0
  H  H309  1  0.81788000  0.25781500  0.35076500  1.0
  H  H310  1  0.78141000  0.28826500  0.30542500  1.0
  H  H311  1  0.62085000  0.50668000  0.38982500  1.0
  H  H312  1  0.60504000  0.49606500  0.44402500  1.0
  H  H313  1  0.52972000  0.44901500  0.39420000  1.0
  H  H314  1  0.78508000  0.53781000  0.47266500  1.0
  H  H315  1  0.93582000  0.53644500  0.46939000  1.0
  H  H316  1  0.08521000  0.47559500  0.43208000  1.0
  H  H317  1  0.09999000  0.41184500  0.44867500  1.0
  H  H318  1  0.08510000  0.35998500  0.37709000  1.0
  H  H319  1  0.98955000  0.30493000  0.34352000  1.0
  H  H320  1  0.39440000  0.61438500  0.15225000  1.0
  H  H321  1  0.50139000  0.54227500  0.16964000  1.0
  H  H322  1  0.57842000  0.58766000  0.22066500  1.0
  H  H323  1  0.65611000  0.54632500  0.17636000  1.0
  H  H324  1  0.27588000  0.67032500  0.12265500  1.0
  H  H325  1  0.33262000  0.69566500  0.08069000  1.0
  H  H326  1  0.33607000  0.74170000  0.13718500  1.0
  H  H327  1  0.49325000  0.78382500  0.11462000  1.0
  H  H328  1  0.63823000  0.78323000  0.10613000  1.0
  H  H329  1  0.78249000  0.73247500  0.09723000  1.0
  H  H330  1  0.85596000  0.68397500  0.11849500  1.0
  H  H331  1  0.82909000  0.75152000  0.15658000  1.0
  H  H332  1  0.87177000  0.67061000  0.18524000  1.0
  H  H333  1  0.82617000  0.59778500  0.16684000  1.0
  H  H334  1  0.24266000  0.81475500  0.41870500  1.0
  H  H335  1  0.13538000  0.79568000  0.45118500  1.0
  H  H336  1  0.19581000  0.05597500  0.46926500  1.0
  H  H337  1  0.86584000  0.00446000  0.38404000  1.0
  H  H338  1  0.88323000  0.03619000  0.44299000  1.0
  H  H339  1  0.79631000  0.85593500  0.36690500  1.0
  H  H340  1  0.84725000  0.90416000  0.33800000  1.0
  H  H341  1  0.77083000  0.92706000  0.38721500  1.0
  H  H342  1  0.06391000  0.78068000  0.37192000  1.0
  H  H343  1  0.94549000  0.80373000  0.34380000  1.0
  H  H344  1  0.52147000  0.98376500  0.02106500  1.0
  H  H345  1  0.44611000  0.90352500  0.03552000  1.0
  H  H346  1  0.49062000  0.84943500  0.99005500  1.0
  H  H347  1  0.33737000  0.85704000  0.99724000  1.0
  H  H348  1  0.57072000  0.07443000  0.01987500  1.0
  H  H349  1  0.49312000  0.10157000  0.97914500  1.0
  H  H350  1  0.62724000  0.06768500  0.96742500  1.0
  H  H351  1  0.92404000  0.76425000  0.03688000  1.0
  H  H352  1  0.07619000  0.71927000  0.06123000  1.0
  H  H353  1  0.18822000  0.71287500  0.02510000  1.0
  H  H354  1  0.09861000  0.65116500  0.02536000  1.0
  H  H355  1  0.67161000  0.78058500  0.96814000  1.0
  H  H356  1  0.78487000  0.83622500  0.97691000  1.0
  H  H357  1  0.75624000  0.80675500  0.02146000  1.0
  H  H358  1  0.18500000  0.63822500  0.95970500  1.0
  H  H359  1  0.83062000  0.38796500  0.05651000  1.0
  H  H360  1  0.64409000  0.40081000  0.02816000  1.0
  H  H361  1  0.55672000  0.34122500  0.99224000  1.0
  H  H362  1  0.64466000  0.38506500  0.96855000  1.0
  H  H363  1  0.10976000  0.34342500  0.05900500  1.0
  H  H364  1  0.03424000  0.31170500  0.09493500  1.0
  H  H365  1  0.00948000  0.38226500  0.09347500  1.0
  H  H366  1  0.10488000  0.24668500  0.03408000  1.0
  H  H367  1  0.01392000  0.18564500  0.00813500  1.0
  H  H368  1  0.88841000  0.15320000  0.94843500  1.0
  H  H369  1  0.52804000  0.40523500  0.46240000  1.0
  H  H370  1  0.34928000  0.39470500  0.41997000  1.0
  H  H371  1  0.27072000  0.32764000  0.40740000  1.0
  H  H372  1  0.35580000  0.34399000  0.36663500  1.0
  H  H373  1  0.60720000  0.16204000  0.38759000  1.0
  H  H374  1  0.48733000  0.15951500  0.41975000  1.0
  H  H375  1  0.62913000  0.16974500  0.44713500  1.0
  H  H376  1  0.41266000  0.18674500  0.35638000  1.0
  H  H377  1  0.33420000  0.24447500  0.35162000  1.0
  H  H378  1  0.26252000  0.77960500  0.28571000  1.0
  H  H379  1  0.07784000  0.73640000  0.26159500  1.0
  H  H380  1  0.01204000  0.70171000  0.29659500  1.0
  H  H381  1  0.09243000  0.66206000  0.25262500  1.0
  H  H382  1  0.55262000  0.79603500  0.32601500  1.0
  H  H383  1  0.48273000  0.84946000  0.36569000  1.0
  H  H384  1  0.43647000  0.83242000  0.30683500  1.0
  H  H385  1  0.57694000  0.78717000  0.39882000  1.0
  H  H386  1  0.50798000  0.76234500  0.43756500  1.0
  H  H387  1  0.38502000  0.62634500  0.39458000  1.0
  H  H388  1  0.26249000  0.65562000  0.42205000  1.0
  H  H389  1  0.39941000  0.69058500  0.44015500  1.0
  H  H390  1  0.18447000  0.59865000  0.34853000  1.0
  H  H391  1  0.08508000  0.61581500  0.30902000  1.0
  N  N392  1  0.24944000  0.68531500  0.88096000  1.0
  N  N393  1  0.41033000  0.67150500  0.81438500  1.0
  N  N394  1  0.38787000  0.59362000  0.88055500  1.0
  N  N395  1  0.59390000  0.65628500  0.87060000  1.0
  N  N396  1  0.46586000  0.76676000  0.89942000  1.0
  N  N397  1  0.31991000  0.18411500  0.85672500  1.0
  N  N398  1  0.26776000  0.11048500  0.90249500  1.0
  N  N399  1  0.01868000  0.17638500  0.47859500  1.0
  N  N400  1  0.46947000  0.69963000  0.95565000  1.0
  N  N401  1  0.14113000  0.21651000  0.93141000  1.0
  N  N402  1  0.49056000  0.18878500  0.94324000  1.0
  N  N403  1  0.32526000  0.20217000  0.99618000  1.0
  N  N404  1  0.35516000  0.28203000  0.93059500  1.0
  N  N405  1  0.86605000  0.19164500  0.40326000  1.0
  N  N406  1  0.02783000  0.16551000  0.34140000  1.0
  N  N407  1  0.07216000  0.09545000  0.39920000  1.0
  N  N408  1  0.22555000  0.19634500  0.42580000  1.0
  N  N409  1  0.06844000  0.27111500  0.43262000  1.0
  N  N410  1  0.63924000  0.65986000  0.38010000  1.0
  N  N411  1  0.80624000  0.65640000  0.32611000  1.0
  N  N412  1  0.83063000  0.57792000  0.38700500  1.0
  N  N413  1  0.99932000  0.66702500  0.40581500  1.0
  N  N414  1  0.78571000  0.67260500  0.46423500  1.0
  N  N415  1  0.84314000  0.75299000  0.41621000  1.0
