# generated using pymatgen
data_AgH22C34(NO)4
_symmetry_space_group_name_H-M   'P 1'
_cell_length_a   32.72090000
_cell_length_b   32.72090000
_cell_length_c   39.79350000
_cell_angle_alpha   90.00000000
_cell_angle_beta   90.00000000
_cell_angle_gamma   89.99900000
_symmetry_Int_Tables_number   1
_chemical_formula_structural   AgH22C34(NO)4
_chemical_formula_sum   'Ag8 H176 C272 N32 O32'
_cell_volume   42605.20113412
_cell_formula_units_Z   8
loop_
 _symmetry_equiv_pos_site_id
 _symmetry_equiv_pos_as_xyz
  1  'x, y, z'
loop_
 _atom_site_type_symbol
 _atom_site_label
 _atom_site_symmetry_multiplicity
 _atom_site_fract_x
 _atom_site_fract_y
 _atom_site_fract_z
 _atom_site_occupancy
  Ag  Ag0  1  0.97361000  0.69124000  0.80878000  1.0
  Ag  Ag1  1  0.69211000  0.96953000  0.30261000  1.0
  Ag  Ag2  1  0.97156000  0.25307000  0.80697000  1.0
  Ag  Ag3  1  0.25014000  0.96644000  0.30290000  1.0
  Ag  Ag4  1  0.96967000  0.68450000  0.15854000  1.0
  Ag  Ag5  1  0.69831000  0.96898000  0.66152000  1.0
  Ag  Ag6  1  0.96780000  0.25333000  0.16258000  1.0
  Ag  Ag7  1  0.25090000  0.96877000  0.66027000  1.0
  H  H8  1  0.00557000  0.53814000  0.81323000  1.0
  H  H9  1  0.01837000  0.61015000  0.79738000  1.0
  H  H10  1  0.89829000  0.64321000  0.82543000  1.0
  H  H11  1  0.88285000  0.57227000  0.84178000  1.0
  H  H12  1  0.03792000  0.75711000  0.81531000  1.0
  H  H13  1  0.00002000  0.67859000  0.73702000  1.0
  H  H14  1  0.09548000  0.78248000  0.78106000  1.0
  H  H15  1  0.05644000  0.70229000  0.70084000  1.0
  H  H16  1  0.07207000  0.64006000  0.89828000  1.0
  H  H17  1  0.05140000  0.66558000  0.84260000  1.0
  H  H18  1  0.93143000  0.68806000  0.87726000  1.0
  H  H19  1  0.94915000  0.66235000  0.93381000  1.0
  H  H20  1  0.91424000  0.83104000  0.83293000  1.0
  H  H21  1  0.96508000  0.77576000  0.83502000  1.0
  H  H22  1  0.89647000  0.70499000  0.76645000  1.0
  H  H23  1  0.84315000  0.75852000  0.76334000  1.0
  H  H24  1  0.53848000  0.93475000  0.29479000  1.0
  H  H25  1  0.61066000  0.92108000  0.30915000  1.0
  H  H26  1  0.64138000  0.04504000  0.29308000  1.0
  H  H27  1  0.57005000  0.06154000  0.27934000  1.0
  H  H28  1  0.77798000  0.94171000  0.27771000  1.0
  H  H29  1  0.66035000  0.88845000  0.27991000  1.0
  H  H30  1  0.80321000  0.88710000  0.24076000  1.0
  H  H31  1  0.68353000  0.83121000  0.24546000  1.0
  H  H32  1  0.66481000  0.92593000  0.42414000  1.0
  H  H33  1  0.68468000  0.91488000  0.36470000  1.0
  H  H34  1  0.68744000  0.04225000  0.34734000  1.0
  H  H35  1  0.66691000  0.05601000  0.40587000  1.0
  H  H36  1  0.80924000  0.05408000  0.25047000  1.0
  H  H37  1  0.77508000  0.01485000  0.29530000  1.0
  H  H38  1  0.66735000  0.00589000  0.23722000  1.0
  H  H39  1  0.69662000  0.04887000  0.19336000  1.0
  H  H40  1  0.88291000  0.37319000  0.84278000  1.0
  H  H41  1  0.89762000  0.30206000  0.82632000  1.0
  H  H42  1  0.01889000  0.33333333  0.80042000  1.0
  H  H43  1  0.00670000  0.40563000  0.81610000  1.0
  H  H44  1  0.93406000  0.16682000  0.80086000  1.0
  H  H45  1  0.92236000  0.27770000  0.74725000  1.0
  H  H46  1  0.89768000  0.12927000  0.75614000  1.0
  H  H47  1  0.88436000  0.24322000  0.70214000  1.0
  H  H48  1  0.94665000  0.27374000  0.93275000  1.0
  H  H49  1  0.92804000  0.25428000  0.87484000  1.0
  H  H50  1  0.05061000  0.26659000  0.84306000  1.0
  H  H51  1  0.07236000  0.28501000  0.90032000  1.0
  H  H52  1  0.04721000  0.12140000  0.77745000  1.0
  H  H53  1  0.01609000  0.17189000  0.81606000  1.0
  H  H54  1  0.00737000  0.25865000  0.73769000  1.0
  H  H55  1  0.03762000  0.21001000  0.69743000  1.0
  H  H56  1  0.37521000  0.05805000  0.29274000  1.0
  H  H57  1  0.30349000  0.04100000  0.30569000  1.0
  H  H58  1  0.32845000  0.91482000  0.29587000  1.0
  H  H59  1  0.40096000  0.92925000  0.28273000  1.0
  H  H60  1  0.16491000  0.00820000  0.29920000  1.0
  H  H61  1  0.27364000  0.01288000  0.24202000  1.0
  H  H62  1  0.12940000  0.05240000  0.25810000  1.0
  H  H63  1  0.24197000  0.05910000  0.20127000  1.0
  H  H64  1  0.25887000  0.03037000  0.41905000  1.0
  H  H65  1  0.23513000  0.02480000  0.36017000  1.0
  H  H66  1  0.28485000  0.90601000  0.35215000  1.0
  H  H67  1  0.31045000  0.90937000  0.41051000  1.0
  H  H68  1  0.12862000  0.88930000  0.25100000  1.0
  H  H69  1  0.16247000  0.93243000  0.29362000  1.0
  H  H70  1  0.27828000  0.90733000  0.25141000  1.0
  H  H71  1  0.24770000  0.86179000  0.20951000  1.0
  H  H72  1  0.87855000  0.56775000  0.19822000  1.0
  H  H73  1  0.89480000  0.63680000  0.17757000  1.0
  H  H74  1  0.01996000  0.60637000  0.16927000  1.0
  H  H75  1  0.00623000  0.53600000  0.18925000  1.0
  H  H76  1  0.91814000  0.74253000  0.12012000  1.0
  H  H77  1  0.91805000  0.70418000  0.22154000  1.0
  H  H78  1  0.85494000  0.78168000  0.12868000  1.0
  H  H79  1  0.85393000  0.74239000  0.23236000  1.0
  H  H80  1  0.94627000  0.65341000  0.03389000  1.0
  H  H81  1  0.92718000  0.67570000  0.09111000  1.0
  H  H82  1  0.04804000  0.65761000  0.12546000  1.0
  H  H83  1  0.06974000  0.63436000  0.06928000  1.0
  H  H84  1  0.04468000  0.81579000  0.13201000  1.0
  H  H85  1  0.98985000  0.76483000  0.12820000  1.0
  H  H86  1  0.04105000  0.69661000  0.20793000  1.0
  H  H87  1  0.09819000  0.74593000  0.21307000  1.0
  H  H88  1  0.55913000  0.03734000  0.66853000  1.0
  H  H89  1  0.63341000  0.03079000  0.67813000  1.0
  H  H90  1  0.63048000  0.90667000  0.64892000  1.0
  H  H91  1  0.55599000  0.91061000  0.63881000  1.0
  H  H92  1  0.77925000  0.98472000  0.62904000  1.0
  H  H93  1  0.71287000  0.04396000  0.70596000  1.0
  H  H94  1  0.83319000  0.03669000  0.63153000  1.0
  H  H95  1  0.76445000  0.09905000  0.70903000  1.0
  H  H96  1  0.65434000  0.05536000  0.56192000  1.0
  H  H97  1  0.67742000  0.04165000  0.61975000  1.0
  H  H98  1  0.69372000  0.91638000  0.59760000  1.0
  H  H99  1  0.67133000  0.92749000  0.53875000  1.0
  H  H100  1  0.81770000  0.89112000  0.71423000  1.0
  H  H101  1  0.78149000  0.92731000  0.66907000  1.0
  H  H102  1  0.67245000  0.92928000  0.72594000  1.0
  H  H103  1  0.70522000  0.89065000  0.77155000  1.0
  H  H104  1  0.00555000  0.40250000  0.18991000  1.0
  H  H105  1  0.01841000  0.33138000  0.17113000  1.0
  H  H106  1  0.89446000  0.30049000  0.18671000  1.0
  H  H107  1  0.87911000  0.37005000  0.20630000  1.0
  H  H108  1  0.98263000  0.17468000  0.20393000  1.0
  H  H109  1  0.05809000  0.26033000  0.15407000  1.0
  H  H110  1  0.04029000  0.12655000  0.20948000  1.0
  H  H111  1  0.11728000  0.21412000  0.15870000  1.0
  H  H112  1  0.03008000  0.23032000  0.04590000  1.0
  H  H113  1  0.01109000  0.21225000  0.10416000  1.0
  H  H114  1  0.94469000  0.32257000  0.11448000  1.0
  H  H115  1  0.96362000  0.34343000  0.05716000  1.0
  H  H116  1  0.89501000  0.12527000  0.12407000  1.0
  H  H117  1  0.94772000  0.17832000  0.12464000  1.0
  H  H118  1  0.89472000  0.23373000  0.21008000  1.0
  H  H119  1  0.83889000  0.18287000  0.21040000  1.0
  H  H120  1  0.39124000  0.91115000  0.63292000  1.0
  H  H121  1  0.31703000  0.90768000  0.64347000  1.0
  H  H122  1  0.31748000  0.02709000  0.68392000  1.0
  H  H123  1  0.39186000  0.03307000  0.67413000  1.0
  H  H124  1  0.16404000  0.93472000  0.66020000  1.0
  H  H125  1  0.27703000  0.89529000  0.70032000  1.0
  H  H126  1  0.13156000  0.86914000  0.67536000  1.0
  H  H127  1  0.24730000  0.82863000  0.71560000  1.0
  H  H128  1  0.26597000  0.92262000  0.53813000  1.0
  H  H129  1  0.24224000  0.91827000  0.59706000  1.0
  H  H130  1  0.29006000  0.03557000  0.61796000  1.0
  H  H131  1  0.31586000  0.04196000  0.55996000  1.0
  H  H132  1  0.13728000  0.06488000  0.62519000  1.0
  H  H133  1  0.19789000  0.02186000  0.61804000  1.0
  H  H134  1  0.20453000  0.00028000  0.72265000  1.0
  H  H135  1  0.14282000  0.04263000  0.73220000  1.0
  H  H136  1  0.05266000  0.57731000  0.92809000  1.0
  H  H137  1  0.05095000  0.57194000  0.03571000  1.0
  H  H138  1  0.99385000  0.67312000  0.98466000  1.0
  H  H139  1  0.59073000  0.02574000  0.42716000  1.0
  H  H140  1  0.58657000  0.02480000  0.53492000  1.0
  H  H141  1  0.69147000  0.97539000  0.48329000  1.0
  H  H142  1  0.04841000  0.35226000  0.03927000  1.0
  H  H143  1  0.06024000  0.34659000  0.93207000  1.0
  H  H144  1  0.98614000  0.25767000  0.98424000  1.0
  H  H145  1  0.37274000  0.99645000  0.53119000  1.0
  H  H146  1  0.36613000  0.98410000  0.42387000  1.0
  H  H147  1  0.25719000  0.97071000  0.48344000  1.0
  H  H148  1  0.91953000  0.53874000  0.89288000  1.0
  H  H149  1  0.91994000  0.40779000  0.89436000  1.0
  H  H150  1  0.95534000  0.47186000  0.80419000  1.0
  H  H151  1  0.53431000  0.03689000  0.22655000  1.0
  H  H152  1  0.40342000  0.03370000  0.22855000  1.0
  H  H153  1  0.47189000  0.97878000  0.30938000  1.0
  H  H154  1  0.90464000  0.40625000  0.25913000  1.0
  H  H155  1  0.90395000  0.53711000  0.25497000  1.0
  H  H156  1  0.95921000  0.46814000  0.17454000  1.0
  H  H157  1  0.54000000  0.00108000  0.59149000  1.0
  H  H158  1  0.40880000  0.99878000  0.59101000  1.0
  H  H159  1  0.47460000  0.96192000  0.67990000  1.0
  H  H160  1  0.75349000  0.90908000  0.81236000  1.0
  H  H161  1  0.84482000  0.83178000  0.85561000  1.0
  H  H162  1  0.82677000  0.83170000  0.74835000  1.0
  H  H163  1  0.74154000  0.03987000  0.15118000  1.0
  H  H164  1  0.82520000  0.12585000  0.10931000  1.0
  H  H165  1  0.81859000  0.11151000  0.21687000  1.0
  H  H166  1  0.06719000  0.04561000  0.64155000  1.0
  H  H167  1  0.99196000  0.13728000  0.68737000  1.0
  H  H168  1  0.11316000  0.11523000  0.72561000  1.0
  H  H169  1  0.20853000  0.88074000  0.16150000  1.0
  H  H170  1  0.11725000  0.80487000  0.11657000  1.0
  H  H171  1  0.11822000  0.82176000  0.22404000  1.0
  H  H172  1  0.11209000  0.14275000  0.12474000  1.0
  H  H173  1  0.19320000  0.04897000  0.15886000  1.0
  H  H174  1  0.12363000  0.11933000  0.23086000  1.0
  H  H175  1  0.13031000  0.69018000  0.70708000  1.0
  H  H176  1  0.22107000  0.77479000  0.67257000  1.0
  H  H177  1  0.11663000  0.81894000  0.72764000  1.0
  H  H178  1  0.69790000  0.82760000  0.18810000  1.0
  H  H179  1  0.78549000  0.74976000  0.14058000  1.0
  H  H180  1  0.81946000  0.81648000  0.22964000  1.0
  H  H181  1  0.83627000  0.10538000  0.61408000  1.0
  H  H182  1  0.91111000  0.19621000  0.66075000  1.0
  H  H183  1  0.83474000  0.11878000  0.72200000  1.0
  C  C184  1  0.01202000  0.64858000  0.92049000  1.0
  C  C185  1  0.04105000  0.65067000  0.89452000  1.0
  C  C186  1  0.02959000  0.66537000  0.86303000  1.0
  C  C187  1  0.96229000  0.67805000  0.88251000  1.0
  C  C188  1  0.97245000  0.66357000  0.91450000  1.0
  C  C189  1  0.90959000  0.80391000  0.81782000  1.0
  C  C190  1  0.93862000  0.77284000  0.81890000  1.0
  C  C191  1  0.90009000  0.73313000  0.78041000  1.0
  C  C192  1  0.87007000  0.76354000  0.77862000  1.0
  C  C193  1  0.87411000  0.79893000  0.79836000  1.0
  C  C194  1  0.94322000  0.54963000  0.82907000  1.0
  C  C195  1  0.98106000  0.56029000  0.81496000  1.0
  C  C196  1  0.98836000  0.60102000  0.80595000  1.0
  C  C197  1  0.92098000  0.61961000  0.82172000  1.0
  C  C198  1  0.91247000  0.57947000  0.83114000  1.0
  C  C199  1  0.08081000  0.74415000  0.73819000  1.0
  C  C200  1  0.07441000  0.76049000  0.77039000  1.0
  C  C201  1  0.04195000  0.74610000  0.78989000  1.0
  C  C202  1  0.02075000  0.70192000  0.74598000  1.0
  C  C203  1  0.05282000  0.71531000  0.72568000  1.0
  C  C204  1  0.66438000  0.99192000  0.41950000  1.0
  C  C205  1  0.67094000  0.95192000  0.40805000  1.0
  C  C206  1  0.68212000  0.94561000  0.37450000  1.0
  C  C207  1  0.68360000  0.01714000  0.36472000  1.0
  C  C208  1  0.67198000  0.02480000  0.39779000  1.0
  C  C209  1  0.77765000  0.04513000  0.24720000  1.0
  C  C210  1  0.75850000  0.02242000  0.27261000  1.0
  C  C211  1  0.69808000  0.01747000  0.24017000  1.0
  C  C212  1  0.71527000  0.04136000  0.21495000  1.0
  C  C213  1  0.75625000  0.05414000  0.21739000  1.0
  C  C214  1  0.54861000  0.99920000  0.28527000  1.0
  C  C215  1  0.56027000  0.95968000  0.29507000  1.0
  C  C216  1  0.60134000  0.95177000  0.30281000  1.0
  C  C217  1  0.61846000  0.02127000  0.29407000  1.0
  C  C218  1  0.57798000  0.03049000  0.28620000  1.0
  C  C219  1  0.74515000  0.85490000  0.23928000  1.0
  C  C220  1  0.77203000  0.88586000  0.24981000  1.0
  C  C221  1  0.75759000  0.91730000  0.27054000  1.0
  C  C222  1  0.69180000  0.88734000  0.27199000  1.0
  C  C223  1  0.70508000  0.85503000  0.25200000  1.0
  C  C224  1  0.01108000  0.28147000  0.92119000  1.0
  C  C225  1  0.97033000  0.27123000  0.91386000  1.0
  C  C226  1  0.95964000  0.26038000  0.88105000  1.0
  C  C227  1  0.02843000  0.26734000  0.86320000  1.0
  C  C228  1  0.04051000  0.27807000  0.89561000  1.0
  C  C229  1  0.04021000  0.15186000  0.76848000  1.0
  C  C230  1  0.02263000  0.18034000  0.79033000  1.0
  C  C231  1  0.01764000  0.22903000  0.74632000  1.0
  C  C232  1  0.03467000  0.20147000  0.72362000  1.0
  C  C233  1  0.04457000  0.16191000  0.73442000  1.0
  C  C234  1  0.94386000  0.39497000  0.83095000  1.0
  C  C235  1  0.91275000  0.36549000  0.83283000  1.0
  C  C236  1  0.92094000  0.32524000  0.82357000  1.0
  C  C237  1  0.98897000  0.34284000  0.80898000  1.0
  C  C238  1  0.98197000  0.38371000  0.81772000  1.0
  C  C239  1  0.88874000  0.18310000  0.72508000  1.0
  C  C240  1  0.90142000  0.16206000  0.75404000  1.0
  C  C241  1  0.92213000  0.18326000  0.77940000  1.0
  C  C242  1  0.91554000  0.24545000  0.74935000  1.0
  C  C243  1  0.89445000  0.22565000  0.72367000  1.0
  C  C244  1  0.28612000  0.97002000  0.41922000  1.0
  C  C245  1  0.26352000  0.00219000  0.40527000  1.0
  C  C246  1  0.25010000  0.99911000  0.37207000  1.0
  C  C247  1  0.27813000  0.93241000  0.36753000  1.0
  C  C248  1  0.29253000  0.93437000  0.40045000  1.0
  C  C249  1  0.16164000  0.89153000  0.25123000  1.0
  C  C250  1  0.18072000  0.91627000  0.27529000  1.0
  C  C251  1  0.24570000  0.90206000  0.25176000  1.0
  C  C252  1  0.22811000  0.87662000  0.22776000  1.0
  C  C253  1  0.18540000  0.87259000  0.22625000  1.0
  C  C254  1  0.39373000  0.99487000  0.28682000  1.0
  C  C255  1  0.36602000  0.02630000  0.29434000  1.0
  C  C256  1  0.32540000  0.01676000  0.30160000  1.0
  C  C257  1  0.33937000  0.94600000  0.29602000  1.0
  C  C258  1  0.38050000  0.95419000  0.28886000  1.0
  C  C259  1  0.18254000  0.05886000  0.22577000  1.0
  C  C260  1  0.16134000  0.04504000  0.25435000  1.0
  C  C261  1  0.18127000  0.01967000  0.27755000  1.0
  C  C262  1  0.24228000  0.02235000  0.24558000  1.0
  C  C263  1  0.22396000  0.04824000  0.22228000  1.0
  C  C264  1  0.00957000  0.64185000  0.04708000  1.0
  C  C265  1  0.96930000  0.65446000  0.05342000  1.0
  C  C266  1  0.95838000  0.66691000  0.08580000  1.0
  C  C267  1  0.02615000  0.65654000  0.10512000  1.0
  C  C268  1  0.03828000  0.64344000  0.07330000  1.0
  C  C269  1  0.04445000  0.79027000  0.14935000  1.0
  C  C270  1  0.01316000  0.76163000  0.14726000  1.0
  C  C271  1  0.04198000  0.72336000  0.19197000  1.0
  C  C272  1  0.07415000  0.75138000  0.19490000  1.0
  C  C273  1  0.07619000  0.78464000  0.17263000  1.0
  C  C274  1  0.94126000  0.54642000  0.19559000  1.0
  C  C275  1  0.90980000  0.57523000  0.19168000  1.0
  C  C276  1  0.91892000  0.61444000  0.18019000  1.0
  C  C277  1  0.98906000  0.59727000  0.17537000  1.0
  C  C278  1  0.98120000  0.55738000  0.18644000  1.0
  C  C279  1  0.84911000  0.76470000  0.18117000  1.0
  C  C280  1  0.86834000  0.76540000  0.14966000  1.0
  C  C281  1  0.90415000  0.74331000  0.14472000  1.0
  C  C282  1  0.90413000  0.72193000  0.20166000  1.0
  C  C283  1  0.86801000  0.74372000  0.20775000  1.0
  C  C284  1  0.66069000  0.99231000  0.54592000  1.0
  C  C285  1  0.66336000  0.02467000  0.56894000  1.0
  C  C286  1  0.67644000  0.01705000  0.60163000  1.0
  C  C287  1  0.68571000  0.94676000  0.58915000  1.0
  C  C288  1  0.67315000  0.95312000  0.55592000  1.0
  C  C289  1  0.78553000  0.89796000  0.71722000  1.0
  C  C290  1  0.76516000  0.91895000  0.69164000  1.0
  C  C291  1  0.70400000  0.91989000  0.72353000  1.0
  C  C292  1  0.72290000  0.89834000  0.74944000  1.0
  C  C293  1  0.76467000  0.88845000  0.74708000  1.0
  C  C294  1  0.55174000  0.97417000  0.65356000  1.0
  C  C295  1  0.57373000  0.00783000  0.66568000  1.0
  C  C296  1  0.61577000  0.00422000  0.67100000  1.0
  C  C297  1  0.61413000  0.93456000  0.65459000  1.0
  C  C298  1  0.57198000  0.93680000  0.64902000  1.0
  C  C299  1  0.80307000  0.07270000  0.67022000  1.0
  C  C300  1  0.80720000  0.03933000  0.64822000  1.0
  C  C301  1  0.77693000  0.00947000  0.64695000  1.0
  C  C302  1  0.73970000  0.04273000  0.69010000  1.0
  C  C303  1  0.76911000  0.07377000  0.69189000  1.0
  C  C304  1  0.99836000  0.28840000  0.04720000  1.0
  C  C305  1  0.01075000  0.25068000  0.06035000  1.0
  C  C306  1  0.00018000  0.24053000  0.09335000  1.0
  C  C307  1  0.96323000  0.30244000  0.09932000  1.0
  C  C308  1  0.97368000  0.31410000  0.06672000  1.0
  C  C309  1  0.89365000  0.14891000  0.14307000  1.0
  C  C310  1  0.92381000  0.17885000  0.14336000  1.0
  C  C311  1  0.89403000  0.20998000  0.19120000  1.0
  C  C312  1  0.86269000  0.18075000  0.19159000  1.0
  C  C313  1  0.86173000  0.15025000  0.16670000  1.0
  C  C314  1  0.94133000  0.39178000  0.20006000  1.0
  C  C315  1  0.98069000  0.38066000  0.18941000  1.0
  C  C316  1  0.98813000  0.34034000  0.17919000  1.0
  C  C317  1  0.91868000  0.32284000  0.18809000  1.0
  C  C318  1  0.91003000  0.36244000  0.19882000  1.0
  C  C319  1  0.08329000  0.16656000  0.18434000  1.0
  C  C320  1  0.04537000  0.15640000  0.19847000  1.0
  C  C321  1  0.01259000  0.18360000  0.19515000  1.0
  C  C322  1  0.05499000  0.23161000  0.16730000  1.0
  C  C323  1  0.08840000  0.20535000  0.16989000  1.0
  C  C324  1  0.29318000  0.98255000  0.54463000  1.0
  C  C325  1  0.27112000  0.94804000  0.55506000  1.0
  C  C326  1  0.25776000  0.94547000  0.58834000  1.0
  C  C327  1  0.28483000  0.01118000  0.60016000  1.0
  C  C328  1  0.29932000  0.01473000  0.56735000  1.0
  C  C329  1  0.15147000  0.05136000  0.64713000  1.0
  C  C330  1  0.18611000  0.02726000  0.64300000  1.0
  C  C331  1  0.18975000  0.01525000  0.70168000  1.0
  C  C332  1  0.15488000  0.03926000  0.70700000  1.0
  C  C333  1  0.13476000  0.05674000  0.67931000  1.0
  C  C334  1  0.39737000  0.97217000  0.65333000  1.0
  C  C335  1  0.37614000  0.93614000  0.64577000  1.0
  C  C336  1  0.33413000  0.93413000  0.65173000  1.0
  C  C337  1  0.33440000  0.00114000  0.67445000  1.0
  C  C338  1  0.37648000  0.00445000  0.66889000  1.0
  C  C339  1  0.18704000  0.84360000  0.69653000  1.0
  C  C340  1  0.16324000  0.87451000  0.68190000  1.0
  C  C341  1  0.18158000  0.91167000  0.67332000  1.0
  C  C342  1  0.24501000  0.88947000  0.69564000  1.0
  C  C343  1  0.22810000  0.85176000  0.70420000  1.0
  C  C344  1  0.01049000  0.64450000  0.98381000  1.0
  C  C345  1  0.02241000  0.62800000  0.95262000  1.0
  C  C346  1  0.04421000  0.59099000  0.95193000  1.0
  C  C347  1  0.05448000  0.57085000  0.98178000  1.0
  C  C348  1  0.04320000  0.58787000  0.01267000  1.0
  C  C349  1  0.02124000  0.62472000  0.01398000  1.0
  C  C350  1  0.07620000  0.53235000  0.98068000  1.0
  C  C351  1  0.66145000  0.98938000  0.48268000  1.0
  C  C352  1  0.64344000  0.99953000  0.45170000  1.0
  C  C353  1  0.60485000  0.01822000  0.45105000  1.0
  C  C354  1  0.58412000  0.02695000  0.48093000  1.0
  C  C355  1  0.60252000  0.01767000  0.51175000  1.0
  C  C356  1  0.64134000  0.99933000  0.51287000  1.0
  C  C357  1  0.54412000  0.04580000  0.47990000  1.0
  C  C358  1  0.00605000  0.28415000  0.98448000  1.0
  C  C359  1  0.01523000  0.30339000  0.01514000  1.0
  C  C360  1  0.04107000  0.33755000  0.01558000  1.0
  C  C361  1  0.05778000  0.35268000  0.98573000  1.0
  C  C362  1  0.04815000  0.33381000  0.95517000  1.0
  C  C363  1  0.02227000  0.29948000  0.95419000  1.0
  C  C364  1  0.08453000  0.38789000  0.98639000  1.0
  C  C365  1  0.28978000  0.97634000  0.48185000  1.0
  C  C366  1  0.31263000  0.98367000  0.51116000  1.0
  C  C367  1  0.35483000  0.99121000  0.50867000  1.0
  C  C368  1  0.37420000  0.99124000  0.47726000  1.0
  C  C369  1  0.35125000  0.98386000  0.44824000  1.0
  C  C370  1  0.30916000  0.97649000  0.45042000  1.0
  C  C371  1  0.41767000  0.99867000  0.47467000  1.0
  C  C372  1  0.94511000  0.47228000  0.83010000  1.0
  C  C373  1  0.93751000  0.50986000  0.84627000  1.0
  C  C374  1  0.92447000  0.50998000  0.87994000  1.0
  C  C375  1  0.91838000  0.47333000  0.89730000  1.0
  C  C376  1  0.92475000  0.43616000  0.88080000  1.0
  C  C377  1  0.93789000  0.43524000  0.84720000  1.0
  C  C378  1  0.90562000  0.47387000  0.93215000  1.0
  C  C379  1  0.47112000  0.99496000  0.28562000  1.0
  C  C380  1  0.50791000  0.00731000  0.27009000  1.0
  C  C381  1  0.50626000  0.02813000  0.23918000  1.0
  C  C382  1  0.46878000  0.03742000  0.22412000  1.0
  C  C383  1  0.43247000  0.02624000  0.24018000  1.0
  C  C384  1  0.43327000  0.00518000  0.27091000  1.0
  C  C385  1  0.46757000  0.05861000  0.19219000  1.0
  C  C386  1  0.94376000  0.46915000  0.19862000  1.0
  C  C387  1  0.93295000  0.43246000  0.21502000  1.0
  C  C388  1  0.91253000  0.43425000  0.24605000  1.0
  C  C389  1  0.90228000  0.47183000  0.26050000  1.0
  C  C390  1  0.91212000  0.50804000  0.24370000  1.0
  C  C391  1  0.93263000  0.50712000  0.21271000  1.0
  C  C392  1  0.88127000  0.47321000  0.29249000  1.0
  C  C393  1  0.47454000  0.97307000  0.65426000  1.0
  C  C394  1  0.51169000  0.98086000  0.63758000  1.0
  C  C395  1  0.51135000  0.99523000  0.60438000  1.0
  C  C396  1  0.47441000  0.00158000  0.58751000  1.0
  C  C397  1  0.43750000  0.99389000  0.60409000  1.0
  C  C398  1  0.43730000  0.97978000  0.63739000  1.0
  C  C399  1  0.47449000  0.01522000  0.55296000  1.0
  C  C400  1  0.81861000  0.84290000  0.77307000  1.0
  C  C401  1  0.78679000  0.87165000  0.77669000  1.0
  C  C402  1  0.77695000  0.88603000  0.80903000  1.0
  C  C403  1  0.79773000  0.87162000  0.83735000  1.0
  C  C404  1  0.82917000  0.84310000  0.83346000  1.0
  C  C405  1  0.84022000  0.82883000  0.80141000  1.0
  C  C406  1  0.78691000  0.88632000  0.87050000  1.0
  C  C407  1  0.80822000  0.10320000  0.19196000  1.0
  C  C408  1  0.77651000  0.07423000  0.18801000  1.0
  C  C409  1  0.76433000  0.06338000  0.15522000  1.0
  C  C410  1  0.78158000  0.08218000  0.12709000  1.0
  C  C411  1  0.81242000  0.11117000  0.13136000  1.0
  C  C412  1  0.82688000  0.12123000  0.16360000  1.0
  C  C413  1  0.76776000  0.07145000  0.09365000  1.0
  C  C414  1  0.08892000  0.10797000  0.70803000  1.0
  C  C415  1  0.09508000  0.07814000  0.68303000  1.0
  C  C416  1  0.06321000  0.06918000  0.66044000  1.0
  C  C417  1  0.02609000  0.09034000  0.66198000  1.0
  C  C418  1  0.02071000  0.12077000  0.68622000  1.0
  C  C419  1  0.05190000  0.12970000  0.70929000  1.0
  C  C420  1  0.99364000  0.08110000  0.63844000  1.0
  C  C421  1  0.13129000  0.82778000  0.19952000  1.0
  C  C422  1  0.16618000  0.85282000  0.19657000  1.0
  C  C423  1  0.18244000  0.86061000  0.16444000  1.0
  C  C424  1  0.16490000  0.84335000  0.13574000  1.0
  C  C425  1  0.13043000  0.81848000  0.13894000  1.0
  C  C426  1  0.11310000  0.81078000  0.17063000  1.0
  C  C427  1  0.18217000  0.85139000  0.10289000  1.0
  C  C428  1  0.13213000  0.11230000  0.20517000  1.0
  C  C429  1  0.11456000  0.13468000  0.17860000  1.0
  C  C430  1  0.12592000  0.12599000  0.14534000  1.0
  C  C431  1  0.15420000  0.09518000  0.13832000  1.0
  C  C432  1  0.17177000  0.07320000  0.16475000  1.0
  C  C433  1  0.16163000  0.08187000  0.19841000  1.0
  C  C434  1  0.16519000  0.08604000  0.10388000  1.0
  C  C435  1  0.13364000  0.79385000  0.71665000  1.0
  C  C436  1  0.11865000  0.75360000  0.71921000  1.0
  C  C437  1  0.14106000  0.72141000  0.70477000  1.0
  C  C438  1  0.17789000  0.72898000  0.68803000  1.0
  C  C439  1  0.19269000  0.76900000  0.68583000  1.0
  C  C440  1  0.17082000  0.80162000  0.70008000  1.0
  C  C441  1  0.20064000  0.69558000  0.67323000  1.0
  C  C442  1  0.79677000  0.80842000  0.21094000  1.0
  C  C443  1  0.75701000  0.82502000  0.21275000  1.0
  C  C444  1  0.72824000  0.81428000  0.18793000  1.0
  C  C445  1  0.73837000  0.78706000  0.16217000  1.0
  C  C446  1  0.77783000  0.77093000  0.16059000  1.0
  C  C447  1  0.80740000  0.78172000  0.18459000  1.0
  C  C448  1  0.70830000  0.77591000  0.13709000  1.0
  C  C449  1  0.84589000  0.12805000  0.69752000  1.0
  C  C450  1  0.83252000  0.10731000  0.66843000  1.0
  C  C451  1  0.84708000  0.12004000  0.63685000  1.0
  C  C452  1  0.87524000  0.15199000  0.63413000  1.0
  C  C453  1  0.88865000  0.17201000  0.66312000  1.0
  C  C454  1  0.87375000  0.16079000  0.69496000  1.0
  C  C455  1  0.89035000  0.16431000  0.60147000  1.0
  N  N456  1  0.95890000  0.62985000  0.81069000  1.0
  N  N457  1  0.01652000  0.71683000  0.77760000  1.0
  N  N458  1  0.99053000  0.67760000  0.85742000  1.0
  N  N459  1  0.93297000  0.73807000  0.80091000  1.0
  N  N460  1  0.62975000  0.98213000  0.30071000  1.0
  N  N461  1  0.71760000  0.91832000  0.28004000  1.0
  N  N462  1  0.68708000  0.97809000  0.35355000  1.0
  N  N463  1  0.71986000  0.00801000  0.26812000  1.0
  N  N464  1  0.95893000  0.31448000  0.81306000  1.0
  N  N465  1  0.93022000  0.22386000  0.77584000  1.0
  N  N466  1  0.98847000  0.25986000  0.85644000  1.0
  N  N467  1  0.01016000  0.21730000  0.77849000  1.0
  N  N468  1  0.31258000  0.97727000  0.30110000  1.0
  N  N469  1  0.22072000  0.00810000  0.27223000  1.0
  N  N470  1  0.25863000  0.96505000  0.35383000  1.0
  N  N471  1  0.22188000  0.92214000  0.27426000  1.0
  N  N472  1  0.95812000  0.62497000  0.17307000  1.0
  N  N473  1  0.92068000  0.72137000  0.17028000  1.0
  N  N474  1  0.98668000  0.66733000  0.11082000  1.0
  N  N475  1  0.01293000  0.72862000  0.16791000  1.0
  N  N476  1  0.63521000  0.96843000  0.66420000  1.0
  N  N477  1  0.74396000  0.01178000  0.66755000  1.0
  N  N478  1  0.68621000  0.97846000  0.61129000  1.0
  N  N479  1  0.72557000  0.93059000  0.69577000  1.0
  N  N480  1  0.95735000  0.31231000  0.17923000  1.0
  N  N481  1  0.01766000  0.21964000  0.17853000  1.0
  N  N482  1  0.97764000  0.26681000  0.11235000  1.0
  N  N483  1  0.92307000  0.20905000  0.16672000  1.0
  N  N484  1  0.31398000  0.96697000  0.66461000  1.0
  N  N485  1  0.22194000  0.91805000  0.67974000  1.0
  N  N486  1  0.26562000  0.97642000  0.61021000  1.0
  N  N487  1  0.20406000  0.00923000  0.66996000  1.0
  O  O488  1  0.11226000  0.53851000  0.98164000  1.0
  O  O489  1  0.05143000  0.50547000  0.97911000  1.0
  O  O490  1  0.51918000  0.01948000  0.47586000  1.0
  O  O491  1  0.54751000  0.08202000  0.48325000  1.0
  O  O492  1  0.11918000  0.37671000  0.98946000  1.0
  O  O493  1  0.06406000  0.41803000  0.98365000  1.0
  O  O494  1  0.43490000  0.96641000  0.47342000  1.0
  O  O495  1  0.42374000  0.03477000  0.47444000  1.0
  O  O496  1  0.86904000  0.47361000  0.93332000  1.0
  O  O497  1  0.93536000  0.47442000  0.94970000  1.0
  O  O498  1  0.46774000  0.03393000  0.16996000  1.0
  O  O499  1  0.46673000  0.09469000  0.19724000  1.0
  O  O500  1  0.90612000  0.47432000  0.31458000  1.0
  O  O501  1  0.84515000  0.47284000  0.28759000  1.0
  O  O502  1  0.47782000  0.98534000  0.53583000  1.0
  O  O503  1  0.47137000  0.05166000  0.55156000  1.0
  O  O504  1  0.76108000  0.86448000  0.88201000  1.0
  O  O505  1  0.80690000  0.91602000  0.87679000  1.0
  O  O506  1  0.74000000  0.09344000  0.08604000  1.0
  O  O507  1  0.78809000  0.04373000  0.08329000  1.0
  O  O508  1  0.99884000  0.10091000  0.61350000  1.0
  O  O509  1  0.97107000  0.05640000  0.65066000  1.0
  O  O510  1  0.20719000  0.82572000  0.09674000  1.0
  O  O511  1  0.16645000  0.88135000  0.09140000  1.0
  O  O512  1  0.14245000  0.06048000  0.09317000  1.0
  O  O513  1  0.19386000  0.10672000  0.09606000  1.0
  O  O514  1  0.18938000  0.69081000  0.64486000  1.0
  O  O515  1  0.22410000  0.68237000  0.69363000  1.0
  O  O516  1  0.69006000  0.74640000  0.14667000  1.0
  O  O517  1  0.71039000  0.79936000  0.11404000  1.0
  O  O518  1  0.92011000  0.14460000  0.59483000  1.0
  O  O519  1  0.86869000  0.19063000  0.59051000  1.0
