# generated using pymatgen
data_Zn3H13C32(N8O3)3
_symmetry_space_group_name_H-M   'P 1'
_cell_length_a   36.30920000
_cell_length_b   40.83210000
_cell_length_c   45.68220000
_cell_angle_alpha   89.99700000
_cell_angle_beta   100.64400000
_cell_angle_gamma   89.99900000
_symmetry_Int_Tables_number   1
_chemical_formula_structural   Zn3H13C32(N8O3)3
_chemical_formula_sum   'Zn12 H52 C128 N96 O36'
_cell_volume   66562.22216960
_cell_formula_units_Z   4
loop_
 _symmetry_equiv_pos_site_id
 _symmetry_equiv_pos_as_xyz
  1  'x, y, z'
loop_
 _atom_site_type_symbol
 _atom_site_label
 _atom_site_symmetry_multiplicity
 _atom_site_fract_x
 _atom_site_fract_y
 _atom_site_fract_z
 _atom_site_occupancy
  Zn  Zn0  1  0.36613000  0.13333000  0.59310000  1.0
  Zn  Zn1  1  0.36920000  0.07254000  0.57590000  1.0
  Zn  Zn2  1  0.44394000  0.10996000  0.60918000  1.0
  Zn  Zn3  1  0.24976000  0.63361000  0.98820000  1.0
  Zn  Zn4  1  0.24693000  0.57353000  0.00686000  1.0
  Zn  Zn5  1  0.17480000  0.60998000  0.96896000  1.0
  Zn  Zn6  1  0.73303000  0.92742000  0.50407000  1.0
  Zn  Zn7  1  0.67860000  0.95229000  0.46637000  1.0
  Zn  Zn8  1  0.69705000  0.98015000  0.53386000  1.0
  Zn  Zn9  1  0.87902000  0.42634000  0.07801000  1.0
  Zn  Zn10  1  0.93570000  0.45081000  0.11444000  1.0
  Zn  Zn11  1  0.91857000  0.47419000  0.04545000  1.0
  H  H12  1  0.05930000  0.13926000  0.29261000  1.0
  H  H13  1  0.05257000  0.08490000  0.31028000  1.0
  H  H14  1  0.09264000  0.90903000  0.78678000  1.0
  H  H15  1  0.04306000  0.95763000  0.81313000  1.0
  H  H16  1  0.05346000  0.93308000  0.75266000  1.0
  H  H17  1  0.06330000  0.00052000  0.78043000  1.0
  H  H18  1  0.06170000  0.99249000  0.74142000  1.0
  H  H19  1  0.10999000  0.94762000  0.75645000  1.0
  H  H20  1  0.11152000  0.97404000  0.81940000  1.0
  H  H21  1  0.07138000  0.56592000  0.98244000  1.0
  H  H22  1  0.07393000  0.60339000  0.00230000  1.0
  H  H23  1  0.07868000  0.57866000  0.10198000  1.0
  H  H24  1  0.10677000  0.59645000  0.06025000  1.0
  H  H25  1  0.14542000  0.94608000  0.80916000  1.0
  H  H26  1  0.61038000  0.61244000  0.31433000  1.0
  H  H27  1  0.58002000  0.65725000  0.26168000  1.0
  H  H28  1  0.55536000  0.63947000  0.28884000  1.0
  H  H29  1  0.56191000  0.58503000  0.27105000  1.0
  H  H30  1  0.60480000  0.61280000  0.22503000  1.0
  H  H31  1  0.59154000  0.57088000  0.23088000  1.0
  H  H32  1  0.63233000  0.56884000  0.27867000  1.0
  H  H33  1  0.65599000  0.64004000  0.26980000  1.0
  H  H34  1  0.67108000  0.61313000  0.30107000  1.0
  H  H35  1  0.00396000  0.11226000  0.26689000  1.0
  H  H36  1  0.03447000  0.15718000  0.31955000  1.0
  H  H37  1  0.00965000  0.11283000  0.35630000  1.0
  H  H38  1  0.02257000  0.07085000  0.35047000  1.0
  H  H39  1  0.98210000  0.06905000  0.30253000  1.0
  H  H40  1  0.95849000  0.14020000  0.31144000  1.0
  H  H41  1  0.94338000  0.11324000  0.28021000  1.0
  H  H42  1  0.52172000  0.40911000  0.79409000  1.0
  H  H43  1  0.57169000  0.45770000  0.76821000  1.0
  H  H44  1  0.58669000  0.41804000  0.78338000  1.0
  H  H45  1  0.56201000  0.43223000  0.82870000  1.0
  H  H46  1  0.55055000  0.50012000  0.80036000  1.0
  H  H47  1  0.55174000  0.49284000  0.83929000  1.0
  H  H48  1  0.50478000  0.44656000  0.82382000  1.0
  H  H49  1  0.50246000  0.47424000  0.76163000  1.0
  H  H50  1  0.46865000  0.44610000  0.77191000  1.0
  H  H51  1  0.02785000  0.91807000  0.79796000  1.0
  H  H52  1  0.54988000  0.03170000  0.52959000  1.0
  H  H53  1  0.49939000  0.06216000  0.53216000  1.0
  H  H54  1  0.47307000  0.03442000  0.54997000  1.0
  H  H55  1  0.59280000  0.95144000  0.55153000  1.0
  H  H56  1  0.56519000  0.97441000  0.52180000  1.0
  H  H57  1  0.59350000  0.96600000  0.59950000  1.0
  H  H58  1  0.55350000  0.98988000  0.63054000  1.0
  H  H59  1  0.50971000  0.03287000  0.61172000  1.0
  H  H60  1  0.03549000  0.53119000  0.00284000  1.0
  H  H61  1  0.97323000  0.52969000  0.05659000  1.0
  H  H62  1  0.97678000  0.52654000  0.01787000  1.0
  H  H63  1  0.02724000  0.53949000  0.09426000  1.0
  C  C64  1  0.04693000  0.10512000  0.32491000  1.0
  C  C65  1  0.08872000  0.92559000  0.80507000  1.0
  C  C66  1  0.04772000  0.93829000  0.79718000  1.0
  C  C67  1  0.04199000  0.95234000  0.76536000  1.0
  C  C68  1  0.06783000  0.98175000  0.76393000  1.0
  C  C69  1  0.10859000  0.96884000  0.77121000  1.0
  C  C70  1  0.11626000  0.95468000  0.80350000  1.0
  C  C71  1  0.12542000  0.58042000  0.00274000  1.0
  C  C72  1  0.08205000  0.10938000  0.34873000  1.0
  C  C73  1  0.11500000  0.84691000  0.86508000  1.0
  C  C74  1  0.09698000  0.90184000  0.83122000  1.0
  C  C75  1  0.12535000  0.81684000  0.88166000  1.0
  C  C76  1  0.04143000  0.54508000  0.07633000  1.0
  C  C77  1  0.07064000  0.56718000  0.08082000  1.0
  C  C78  1  0.08701000  0.57669000  0.05726000  1.0
  C  C79  1  0.07557000  0.56247000  0.02941000  1.0
  C  C80  1  0.04666000  0.53995000  0.02496000  1.0
  C  C81  1  0.08517000  0.57821000  0.00313000  1.0
  C  C82  1  0.13766000  0.99076000  0.76128000  1.0
  C  C83  1  0.14496000  0.11057000  0.39170000  1.0
  C  C84  1  0.13583000  0.79195000  0.89535000  1.0
  C  C85  1  0.14856000  0.76226000  0.91174000  1.0
  C  C86  1  0.61498000  0.63216000  0.29883000  1.0
  C  C87  1  0.57797000  0.63580000  0.27600000  1.0
  C  C88  1  0.56760000  0.60526000  0.25643000  1.0
  C  C89  1  0.60002000  0.59459000  0.24192000  1.0
  C  C90  1  0.63656000  0.58927000  0.26384000  1.0
  C  C91  1  0.64730000  0.62015000  0.28341000  1.0
  C  C92  1  0.99959000  0.13200000  0.28242000  1.0
  C  C93  1  0.03655000  0.13565000  0.30533000  1.0
  C  C94  1  0.01430000  0.09458000  0.33940000  1.0
  C  C95  1  0.97778000  0.08940000  0.31741000  1.0
  C  C96  1  0.96715000  0.12026000  0.29786000  1.0
  C  C97  1  0.52569000  0.42577000  0.77587000  1.0
  C  C98  1  0.56688000  0.43833000  0.78407000  1.0
  C  C99  1  0.57225000  0.45219000  0.81599000  1.0
  C  C100  1  0.54604000  0.48145000  0.81700000  1.0
  C  C101  1  0.50568000  0.46850000  0.80984000  1.0
  C  C102  1  0.49777000  0.45479000  0.77746000  1.0
  C  C103  1  0.32140000  0.11317000  0.53643000  1.0
  C  C104  1  0.47817000  0.08191000  0.56773000  1.0
  C  C105  1  0.33406000  0.08289000  0.62423000  1.0
  C  C106  1  0.42976000  0.17556000  0.62277000  1.0
  C  C107  1  0.29486000  0.61374000  0.04506000  1.0
  C  C108  1  0.28194000  0.58284000  0.95808000  1.0
  C  C109  1  0.18777000  0.67611000  0.95808000  1.0
  C  C110  1  0.68833000  0.88428000  0.46086000  1.0
  C  C111  1  0.62282000  0.98525000  0.53138000  1.0
  C  C112  1  0.74945000  0.97075000  0.45951000  1.0
  C  C113  1  0.76150000  0.94807000  0.56536000  1.0
  C  C114  1  0.92550000  0.38324000  0.12030000  1.0
  C  C115  1  0.99095000  0.48368000  0.04357000  1.0
  C  C116  1  0.86499000  0.47008000  0.12250000  1.0
  C  C117  1  0.85108000  0.44517000  0.01611000  1.0
  C  C118  1  0.18957000  0.01583000  0.73130000  1.0
  C  C119  1  0.21654000  0.02778000  0.71425000  1.0
  C  C120  1  0.23769000  0.03777000  0.69867000  1.0
  C  C121  1  0.26304000  0.04960000  0.68017000  1.0
  C  C122  1  0.31009000  0.07188000  0.64490000  1.0
  C  C123  1  0.42546000  0.51629000  0.85064000  1.0
  C  C124  1  0.47821000  0.48952000  0.82268000  1.0
  C  C125  1  0.39687000  0.52858000  0.86591000  1.0
  C  C126  1  0.37419000  0.53802000  0.88037000  1.0
  C  C127  1  0.34904000  0.54827000  0.89963000  1.0
  C  C128  1  0.30474000  0.57054000  0.93704000  1.0
  C  C129  1  0.89870000  0.05254000  0.36622000  1.0
  C  C130  1  0.94873000  0.07729000  0.33484000  1.0
  C  C131  1  0.87288000  0.03990000  0.38344000  1.0
  C  C132  1  0.85170000  0.02859000  0.39805000  1.0
  C  C133  1  0.82595000  0.01555000  0.41508000  1.0
  C  C134  1  0.77630000  0.98773000  0.44477000  1.0
  C  C135  1  0.71560000  0.55238000  0.21504000  1.0
  C  C136  1  0.66553000  0.57744000  0.24619000  1.0
  C  C137  1  0.74156000  0.53984000  0.19795000  1.0
  C  C138  1  0.76284000  0.52877000  0.18333000  1.0
  C  C139  1  0.78890000  0.51604000  0.16647000  1.0
  C  C140  1  0.83857000  0.48774000  0.13714000  1.0
  C  C141  1  0.17787000  0.11165000  0.41504000  1.0
  C  C142  1  0.20342000  0.11266000  0.43632000  1.0
  C  C143  1  0.23403000  0.11386000  0.46172000  1.0
  C  C144  1  0.29099000  0.11657000  0.50985000  1.0
  C  C145  1  0.46980000  0.61063000  0.18969000  1.0
  C  C146  1  0.53259000  0.60953000  0.23263000  1.0
  C  C147  1  0.43656000  0.61154000  0.16681000  1.0
  C  C148  1  0.40980000  0.61258000  0.14661000  1.0
  C  C149  1  0.37986000  0.61411000  0.12093000  1.0
  C  C150  1  0.32430000  0.61740000  0.07203000  1.0
  C  C151  1  0.93834000  0.95664000  0.70678000  1.0
  C  C152  1  0.00301000  0.95408000  0.74714000  1.0
  C  C153  1  0.90543000  0.95743000  0.68412000  1.0
  C  C154  1  0.87970000  0.95485000  0.66348000  1.0
  C  C155  1  0.84886000  0.95213000  0.63903000  1.0
  C  C156  1  0.79137000  0.94829000  0.59200000  1.0
  C  C157  1  0.67563000  0.45733000  0.87451000  1.0
  C  C158  1  0.61001000  0.45657000  0.83529000  1.0
  C  C159  1  0.70976000  0.45676000  0.89589000  1.0
  C  C160  1  0.73610000  0.45527000  0.91613000  1.0
  C  C161  1  0.76554000  0.45299000  0.94164000  1.0
  C  C162  1  0.82104000  0.44607000  0.98974000  1.0
  C  C163  1  0.49919000  0.34703000  0.71611000  1.0
  C  C164  1  0.51770000  0.40190000  0.74987000  1.0
  C  C165  1  0.48854000  0.31704000  0.69958000  1.0
  C  C166  1  0.47817000  0.29214000  0.68589000  1.0
  C  C167  1  0.46613000  0.26227000  0.66959000  1.0
  C  C168  1  0.44287000  0.20658000  0.63861000  1.0
  C  C169  1  0.17351000  0.70704000  0.94278000  1.0
  C  C170  1  0.63674000  0.71520000  0.35689000  1.0
  C  C171  1  0.62435000  0.66297000  0.31848000  1.0
  C  C172  1  0.64426000  0.74350000  0.37698000  1.0
  C  C173  1  0.65127000  0.76754000  0.39311000  1.0
  C  C174  1  0.65907000  0.79673000  0.41204000  1.0
  C  C175  1  0.67710000  0.85264000  0.44480000  1.0
  C  C176  1  0.97772000  0.21492000  0.22443000  1.0
  C  C177  1  0.99134000  0.16295000  0.26291000  1.0
  C  C178  1  0.97035000  0.24355000  0.20488000  1.0
  C  C179  1  0.96286000  0.26775000  0.18914000  1.0
  C  C180  1  0.95392000  0.29673000  0.17027000  1.0
  C  C181  1  0.93584000  0.35162000  0.13627000  1.0
  C  C182  1  0.58802000  0.97590000  0.54132000  1.0
  C  C183  1  0.57647000  0.99879000  0.56311000  1.0
  C  C184  1  0.57775000  0.98753000  0.59192000  1.0
  C  C185  1  0.55457000  0.00080000  0.60951000  1.0
  C  C186  1  0.52995000  0.02558000  0.59873000  1.0
  C  C187  1  0.52903000  0.03794000  0.57024000  1.0
  C  C188  1  0.55328000  0.02498000  0.55277000  1.0
  C  C189  1  0.49461000  0.05382000  0.55404000  1.0
  C  C190  1  0.98992000  0.51959000  0.04085000  1.0
  C  C191  1  0.02804000  0.53308000  0.04795000  1.0
  N  N192  1  0.12735000  0.00990000  0.73676000  1.0
  N  N193  1  0.11068000  0.10881000  0.39912000  1.0
  N  N194  1  0.07997000  0.10817000  0.37814000  1.0
  N  N195  1  0.11655000  0.11084000  0.34129000  1.0
  N  N196  1  0.07897000  0.85305000  0.85210000  1.0
  N  N197  1  0.07029000  0.87972000  0.83533000  1.0
  N  N198  1  0.12415000  0.73832000  0.91601000  1.0
  N  N199  1  0.15270000  0.02245000  0.72227000  1.0
  N  N200  1  0.14743000  0.11159000  0.36237000  1.0
  N  N201  1  0.14174000  0.86875000  0.86102000  1.0
  N  N202  1  0.13302000  0.89537000  0.84420000  1.0
  N  N203  1  0.13638000  0.71117000  0.93111000  1.0
  N  N204  1  0.20017000  0.99651000  0.75553000  1.0
  N  N205  1  0.17470000  0.98392000  0.76999000  1.0
  N  N206  1  0.25066000  0.07019000  0.65740000  1.0
  N  N207  1  0.27370000  0.08119000  0.64008000  1.0
  N  N208  1  0.32261000  0.05071000  0.66751000  1.0
  N  N209  1  0.29960000  0.03992000  0.68506000  1.0
  N  N210  1  0.41998000  0.51475000  0.82039000  1.0
  N  N211  1  0.45789000  0.50477000  0.86661000  1.0
  N  N212  1  0.48358000  0.49169000  0.85289000  1.0
  N  N213  1  0.44574000  0.50135000  0.80657000  1.0
  N  N214  1  0.35815000  0.54252000  0.92926000  1.0
  N  N215  1  0.33625000  0.55324000  0.94758000  1.0
  N  N216  1  0.29508000  0.57573000  0.90726000  1.0
  N  N217  1  0.31686000  0.56467000  0.88884000  1.0
  N  N218  1  0.88826000  0.07608000  0.34538000  1.0
  N  N219  1  0.93415000  0.04112000  0.37082000  1.0
  N  N220  1  0.95853000  0.05315000  0.35530000  1.0
  N  N221  1  0.91283000  0.08827000  0.32986000  1.0
  N  N222  1  0.83742000  0.99288000  0.43640000  1.0
  N  N223  1  0.81297000  0.97926000  0.45106000  1.0
  N  N224  1  0.76494000  0.01086000  0.42372000  1.0
  N  N225  1  0.78946000  0.02460000  0.40913000  1.0
  N  N226  1  0.72705000  0.57257000  0.23855000  1.0
  N  N227  1  0.67909000  0.54431000  0.20765000  1.0
  N  N228  1  0.65467000  0.55643000  0.22308000  1.0
  N  N229  1  0.70245000  0.58482000  0.25400000  1.0
  N  N230  1  0.77684000  0.49606000  0.14299000  1.0
  N  N231  1  0.80136000  0.48223000  0.12857000  1.0
  N  N232  1  0.85052000  0.50838000  0.16020000  1.0
  N  N233  1  0.82593000  0.52231000  0.17462000  1.0
  N  N234  1  0.22682000  0.11393000  0.48983000  1.0
  N  N235  1  0.25473000  0.11507000  0.51332000  1.0
  N  N236  1  0.29825000  0.11556000  0.48164000  1.0
  N  N237  1  0.27025000  0.11463000  0.45806000  1.0
  N  N238  1  0.50413000  0.61198000  0.18223000  1.0
  N  N239  1  0.46730000  0.60866000  0.21890000  1.0
  N  N240  1  0.49810000  0.60798000  0.23996000  1.0
  N  N241  1  0.53485000  0.61140000  0.20324000  1.0
  N  N242  1  0.34339000  0.61178000  0.12374000  1.0
  N  N243  1  0.31616000  0.61296000  0.09969000  1.0
  N  N244  1  0.36083000  0.61901000  0.06937000  1.0
  N  N245  1  0.38803000  0.61757000  0.09334000  1.0
  N  N246  1  0.94711000  0.98085000  0.72740000  1.0
  N  N247  1  0.96195000  0.93128000  0.70689000  1.0
  N  N248  1  0.99344000  0.93007000  0.72665000  1.0
  N  N249  1  0.97919000  0.97977000  0.74728000  1.0
  N  N250  1  0.84761000  0.92777000  0.61874000  1.0
  N  N251  1  0.81939000  0.92591000  0.59554000  1.0
  N  N252  1  0.79264000  0.97256000  0.61256000  1.0
  N  N253  1  0.82084000  0.97444000  0.63568000  1.0
  N  N254  1  0.64292000  0.45604000  0.88433000  1.0
  N  N255  1  0.67528000  0.45853000  0.84469000  1.0
  N  N256  1  0.64289000  0.45801000  0.82522000  1.0
  N  N257  1  0.61087000  0.45574000  0.86509000  1.0
  N  N258  1  0.80177000  0.45683000  0.93891000  1.0
  N  N259  1  0.82902000  0.45376000  0.96264000  1.0
  N  N260  1  0.78469000  0.44281000  0.99245000  1.0
  N  N261  1  0.75742000  0.44616000  0.96877000  1.0
  N  N262  1  0.53500000  0.35216000  0.73022000  1.0
  N  N263  1  0.47297000  0.36983000  0.71900000  1.0
  N  N264  1  0.48189000  0.39645000  0.73577000  1.0
  N  N265  1  0.54388000  0.37883000  0.74693000  1.0
  N  N266  1  0.42953000  0.25806000  0.65669000  1.0
  N  N267  1  0.41826000  0.23076000  0.64162000  1.0
  N  N268  1  0.47950000  0.21080000  0.65166000  1.0
  N  N269  1  0.49078000  0.23817000  0.66675000  1.0
  N  N270  1  0.19764000  0.73100000  0.93835000  1.0
  N  N271  1  0.18546000  0.75802000  0.92321000  1.0
  N  N272  1  0.61006000  0.71657000  0.33179000  1.0
  N  N273  1  0.65689000  0.68712000  0.36250000  1.0
  N  N274  1  0.65072000  0.66160000  0.34385000  1.0
  N  N275  1  0.60389000  0.69106000  0.31314000  1.0
  N  N276  1  0.68693000  0.79686000  0.43648000  1.0
  N  N277  1  0.69574000  0.82415000  0.45251000  1.0
  N  N278  1  0.64864000  0.85222000  0.42070000  1.0
  N  N279  1  0.63984000  0.82497000  0.40471000  1.0
  N  N280  1  0.01315000  0.20383000  0.23396000  1.0
  N  N281  1  0.94922000  0.19911000  0.23399000  1.0
  N  N282  1  0.95578000  0.17359000  0.25261000  1.0
  N  N283  1  0.01969000  0.17834000  0.25255000  1.0
  N  N284  1  0.91758000  0.30490000  0.15971000  1.0
  N  N285  1  0.90884000  0.33166000  0.14308000  1.0
  N  N286  1  0.97235000  0.34361000  0.14704000  1.0
  N  N287  1  0.98113000  0.31656000  0.16346000  1.0
  O  O288  1  0.13286000  0.59523000  0.97938000  1.0
  O  O289  1  0.15168000  0.57337000  0.02574000  1.0
  O  O290  1  0.48056000  0.08516000  0.59653000  1.0
  O  O291  1  0.45265000  0.09859000  0.54993000  1.0
  O  O292  1  0.34490000  0.06135000  0.60631000  1.0
  O  O293  1  0.34017000  0.11447000  0.62098000  1.0
  O  O294  1  0.39343000  0.17129000  0.61098000  1.0
  O  O295  1  0.45475000  0.15218000  0.62207000  1.0
  O  O296  1  0.33485000  0.08357000  0.54257000  1.0
  O  O297  1  0.33162000  0.13777000  0.55553000  1.0
  O  O298  1  0.39932000  0.10599000  0.58627000  1.0
  O  O299  1  0.27344000  0.56244000  0.97791000  1.0
  O  O300  1  0.27335000  0.61419000  0.95901000  1.0
  O  O301  1  0.22365000  0.67253000  0.97117000  1.0
  O  O302  1  0.16419000  0.65167000  0.95647000  1.0
  O  O303  1  0.28001000  0.58454000  0.04022000  1.0
  O  O304  1  0.28565000  0.63776000  0.02515000  1.0
  O  O305  1  0.21602000  0.60682000  0.99617000  1.0
  O  O306  1  0.65467000  0.98167000  0.54978000  1.0
  O  O307  1  0.62267000  0.98540000  0.50271000  1.0
  O  O308  1  0.71345000  0.97427000  0.44961000  1.0
  O  O309  1  0.76180000  0.95082000  0.48175000  1.0
  O  O310  1  0.76190000  0.92668000  0.54335000  1.0
  O  O311  1  0.73619000  0.97131000  0.56366000  1.0
  O  O312  1  0.67025000  0.91093000  0.45025000  1.0
  O  O313  1  0.71629000  0.88651000  0.48435000  1.0
  O  O314  1  0.69317000  0.94978000  0.50551000  1.0
  O  O315  1  0.96103000  0.46810000  0.03063000  1.0
  O  O316  1  0.01032000  0.47109000  0.06805000  1.0
  O  O317  1  0.90120000  0.47260000  0.13223000  1.0
  O  O318  1  0.85173000  0.45057000  0.10025000  1.0
  O  O319  1  0.84872000  0.42602000  0.03932000  1.0
  O  O320  1  0.87898000  0.46558000  0.01608000  1.0
  O  O321  1  0.94533000  0.40936000  0.12993000  1.0
  O  O322  1  0.89560000  0.38596000  0.09840000  1.0
  O  O323  1  0.91908000  0.44752000  0.07581000  1.0
