# generated using pymatgen
data_Cu3H30C59N18O13
_symmetry_space_group_name_H-M   'P 1'
_cell_length_a   35.17600000
_cell_length_b   40.61850000
_cell_length_c   50.30360000
_cell_angle_alpha   89.98300000
_cell_angle_beta   89.94800000
_cell_angle_gamma   87.29200000
_symmetry_Int_Tables_number   1
_chemical_formula_structural   Cu3H30C59N18O13
_chemical_formula_sum   'Cu12 H120 C236 N72 O52'
_cell_volume   71793.30637069
_cell_formula_units_Z   4
loop_
 _symmetry_equiv_pos_site_id
 _symmetry_equiv_pos_as_xyz
  1  'x, y, z'
loop_
 _atom_site_type_symbol
 _atom_site_label
 _atom_site_symmetry_multiplicity
 _atom_site_fract_x
 _atom_site_fract_y
 _atom_site_fract_z
 _atom_site_occupancy
  Cu  Cu0  1  0.49913000  0.22223000  0.61282000  1.0
  Cu  Cu1  1  0.41486000  0.23328000  0.60120000  1.0
  Cu  Cu2  1  0.45917000  0.17350000  0.57766000  1.0
  Cu  Cu3  1  0.06536000  0.31128000  0.16392000  1.0
  Cu  Cu4  1  0.98169000  0.32364000  0.16317000  1.0
  Cu  Cu5  1  0.02830000  0.36935000  0.13330000  1.0
  Cu  Cu6  1  0.51188000  0.65152000  0.43876000  1.0
  Cu  Cu7  1  0.43986000  0.65557000  0.40562000  1.0
  Cu  Cu8  1  0.44248000  0.68960000  0.45970000  1.0
  Cu  Cu9  1  0.99512000  0.76893000  0.85989000  1.0
  Cu  Cu10  1  0.92068000  0.76885000  0.89095000  1.0
  Cu  Cu11  1  0.98945000  0.72672000  0.90966000  1.0
  H  H12  1  0.69731000  0.55958000  0.08119000  1.0
  H  H13  1  0.71965000  0.60834000  0.05868000  1.0
  H  H14  1  0.62263000  0.60850000  0.00650000  1.0
  H  H15  1  0.60057000  0.56079000  0.02778000  1.0
  H  H16  1  0.63250000  0.58503000  0.10123000  1.0
  H  H17  1  0.59565000  0.59682000  0.14034000  1.0
  H  H18  1  0.57775000  0.49360000  0.15082000  1.0
  H  H19  1  0.61374000  0.48119000  0.11101000  1.0
  H  H20  1  0.55766000  0.54614000  0.08911000  1.0
  H  H21  1  0.49677000  0.52862000  0.07377000  1.0
  H  H22  1  0.55200000  0.47204000  0.01134000  1.0
  H  H23  1  0.61324000  0.48849000  0.02630000  1.0
  H  H24  1  0.74827000  0.95354000  0.57978000  1.0
  H  H25  1  0.71595000  0.92092000  0.54664000  1.0
  H  H26  1  0.82244000  0.90282000  0.50569000  1.0
  H  H27  1  0.85385000  0.93634000  0.53701000  1.0
  H  H28  1  0.81339000  0.91701000  0.60101000  1.0
  H  H29  1  0.84886000  0.89729000  0.63918000  1.0
  H  H30  1  0.88031000  0.99594000  0.65698000  1.0
  H  H31  1  0.84524000  0.01638000  0.61858000  1.0
  H  H32  1  0.89623000  0.95849000  0.59289000  1.0
  H  H33  1  0.95653000  0.97198000  0.57379000  1.0
  H  H34  1  0.89874000  0.02424000  0.51020000  1.0
  H  H35  1  0.83814000  0.01168000  0.52877000  1.0
  H  H36  1  0.26685000  0.45918000  0.92905000  1.0
  H  H37  1  0.23311000  0.51036000  0.94041000  1.0
  H  H38  1  0.33892000  0.55403000  0.95880000  1.0
  H  H39  1  0.37312000  0.50312000  0.94780000  1.0
  H  H40  1  0.31875000  0.45084000  0.89247000  1.0
  H  H41  1  0.32542000  0.41071000  0.85674000  1.0
  H  H42  1  0.41049000  0.35522000  0.90156000  1.0
  H  H43  1  0.40186000  0.39238000  0.93796000  1.0
  H  H44  1  0.42097000  0.44943000  0.93837000  1.0
  H  H45  1  0.46772000  0.46428000  0.97020000  1.0
  H  H46  1  0.38391000  0.46458000  0.03243000  1.0
  H  H47  1  0.33627000  0.44969000  0.00076000  1.0
  H  H48  1  0.19481000  0.06144000  0.43290000  1.0
  H  H49  1  0.24654000  0.01986000  0.43140000  1.0
  H  H50  1  0.17372000  0.94844000  0.46528000  1.0
  H  H51  1  0.12129000  0.98948000  0.46629000  1.0
  H  H52  1  0.12975000  0.02020000  0.40458000  1.0
  H  H53  1  0.13397000  0.04343000  0.36055000  1.0
  H  H54  1  0.08421000  0.13574000  0.38878000  1.0
  H  H55  1  0.07885000  0.11253000  0.43311000  1.0
  H  H56  1  0.04918000  0.03866000  0.43685000  1.0
  H  H57  1  0.99701000  0.02186000  0.46433000  1.0
  H  H58  1  0.06485000  0.03240000  0.53464000  1.0
  H  H59  1  0.11726000  0.05022000  0.50768000  1.0
  H  H60  1  0.89900000  0.78477000  0.00375000  1.0
  H  H61  1  0.93134000  0.75088000  0.01248000  1.0
  H  H62  1  0.81424000  0.66318000  0.96857000  1.0
  H  H63  1  0.67310000  0.64458000  0.99678000  1.0
  H  H64  1  0.66437000  0.66403000  0.02813000  1.0
  H  H65  1  0.78864000  0.72181000  0.05561000  1.0
  H  H66  1  0.57706000  0.71005000  0.52051000  1.0
  H  H67  1  0.54228000  0.74307000  0.52772000  1.0
  H  H68  1  0.60248000  0.85846000  0.50675000  1.0
  H  H69  1  0.73146000  0.91627000  0.48888000  1.0
  H  H70  1  0.76780000  0.88413000  0.48545000  1.0
  H  H71  1  0.70745000  0.76932000  0.50647000  1.0
  H  H72  1  0.18925000  0.33804000  0.11204000  1.0
  H  H73  1  0.16748000  0.37882000  0.11175000  1.0
  H  H74  1  0.20143000  0.43841000  0.02366000  1.0
  H  H75  1  0.29019000  0.41202000  0.93889000  1.0
  H  H76  1  0.32886000  0.38740000  0.94858000  1.0
  H  H77  1  0.27549000  0.32930000  0.02911000  1.0
  H  H78  1  0.29788000  0.14524000  0.61559000  1.0
  H  H79  1  0.32805000  0.10841000  0.61032000  1.0
  H  H80  1  0.25002000  0.04852000  0.53519000  1.0
  H  H81  1  0.15168000  0.10406000  0.44816000  1.0
  H  H82  1  0.11261000  0.10694000  0.46983000  1.0
  H  H83  1  0.21327000  0.16969000  0.52771000  1.0
  H  H84  1  0.90278000  0.42641000  0.13530000  1.0
  H  H85  1  0.88024000  0.39346000  0.15176000  1.0
  H  H86  1  0.73850000  0.40961000  0.12741000  1.0
  H  H87  1  0.64332000  0.47119000  0.06776000  1.0
  H  H88  1  0.66923000  0.49490000  0.04510000  1.0
  H  H89  1  0.81112000  0.48657000  0.06985000  1.0
  H  H90  1  0.54059000  0.07842000  0.63862000  1.0
  H  H91  1  0.56272000  0.10725000  0.66060000  1.0
  H  H92  1  0.71033000  0.07653000  0.64780000  1.0
  H  H93  1  0.81322000  0.03353000  0.58052000  1.0
  H  H94  1  0.78921000  0.01749000  0.55289000  1.0
  H  H95  1  0.64409000  0.03039000  0.56818000  1.0
  H  H96  1  0.14416000  0.77843000  0.91552000  1.0
  H  H97  1  0.15051000  0.76427000  0.88223000  1.0
  H  H98  1  0.14801000  0.62505000  0.91497000  1.0
  H  H99  1  0.23756000  0.55142000  0.97794000  1.0
  H  H100  1  0.28126000  0.57142000  0.98355000  1.0
  H  H101  1  0.25774000  0.69138000  0.94519000  1.0
  H  H102  1  0.30277000  0.72059000  0.42430000  1.0
  H  H103  1  0.30897000  0.73182000  0.39001000  1.0
  H  H104  1  0.28450000  0.86308000  0.38227000  1.0
  H  H105  1  0.27365000  0.96769000  0.44150000  1.0
  H  H106  1  0.25563000  0.95825000  0.47372000  1.0
  H  H107  1  0.25748000  0.83033000  0.47690000  1.0
  H  H108  1  0.57900000  0.60993000  0.34708000  1.0
  H  H109  1  0.58242000  0.65097000  0.33578000  1.0
  H  H110  1  0.55183000  0.65254000  0.23572000  1.0
  H  H111  1  0.53065000  0.57454000  0.15307000  1.0
  H  H112  1  0.52899000  0.53293000  0.16462000  1.0
  H  H113  1  0.53734000  0.53694000  0.26962000  1.0
  H  H114  1  0.95275000  0.90840000  0.85907000  1.0
  H  H115  1  0.90261000  0.90188000  0.86161000  1.0
  H  H116  1  0.88235000  0.85781000  0.75338000  1.0
  H  H117  1  0.91044000  0.90619000  0.65888000  1.0
  H  H118  1  0.92634000  0.94712000  0.66282000  1.0
  H  H119  1  0.93325000  0.97097000  0.76511000  1.0
  H  H120  1  0.42975000  0.32740000  0.67295000  1.0
  H  H121  1  0.47628000  0.31581000  0.68579000  1.0
  H  H122  1  0.46772000  0.30609000  0.79014000  1.0
  H  H123  1  0.37335000  0.32679000  0.87093000  1.0
  H  H124  1  0.33004000  0.34639000  0.85902000  1.0
  H  H125  1  0.34028000  0.34850000  0.75507000  1.0
  H  H126  1  0.97411000  0.19425000  0.19917000  1.0
  H  H127  1  0.97075000  0.22760000  0.22190000  1.0
  H  H128  1  0.07829000  0.21808000  0.29611000  1.0
  H  H129  1  0.14829000  0.12755000  0.35629000  1.0
  H  H130  1  0.14614000  0.09137000  0.33607000  1.0
  H  H131  1  0.04300000  0.10722000  0.26106000  1.0
  C  C132  1  0.35096000  0.15290000  0.59669000  1.0
  C  C133  1  0.53854000  0.12812000  0.62527000  1.0
  C  C134  1  0.44582000  0.27643000  0.66927000  1.0
  C  C135  1  0.91807000  0.37828000  0.12067000  1.0
  C  C136  1  0.12942000  0.34100000  0.10437000  1.0
  C  C137  1  0.00370000  0.23631000  0.18779000  1.0
  C  C138  1  0.35991000  0.72828000  0.41331000  1.0
  C  C139  1  0.53991000  0.72314000  0.48847000  1.0
  C  C140  1  0.53592000  0.64344000  0.36145000  1.0
  C  C141  1  0.92375000  0.75896000  0.97069000  1.0
  C  C142  1  0.09516000  0.75795000  0.89874000  1.0
  C  C143  1  0.93865000  0.85805000  0.85918000  1.0
  C  C144  1  0.63215000  0.52487000  0.07191000  1.0
  C  C145  1  0.64708000  0.55507000  0.05673000  1.0
  C  C146  1  0.68128000  0.56935000  0.06439000  1.0
  C  C147  1  0.69404000  0.59752000  0.05158000  1.0
  C  C148  1  0.67310000  0.61199000  0.03050000  1.0
  C  C149  1  0.63972000  0.59757000  0.02240000  1.0
  C  C150  1  0.62695000  0.56979000  0.03510000  1.0
  C  C151  1  0.62712000  0.53154000  0.10217000  1.0
  C  C152  1  0.62336000  0.56411000  0.11234000  1.0
  C  C153  1  0.60167000  0.57126000  0.13512000  1.0
  C  C154  1  0.58310000  0.54627000  0.14837000  1.0
  C  C155  1  0.59173000  0.51345000  0.14102000  1.0
  C  C156  1  0.61339000  0.50619000  0.11826000  1.0
  C  C157  1  0.59209000  0.51654000  0.06083000  1.0
  C  C158  1  0.55774000  0.52905000  0.07270000  1.0
  C  C159  1  0.52238000  0.51938000  0.06377000  1.0
  C  C160  1  0.52023000  0.49822000  0.04206000  1.0
  C  C161  1  0.55337000  0.48758000  0.02879000  1.0
  C  C162  1  0.58869000  0.49687000  0.03775000  1.0
  C  C163  1  0.82062000  0.97943000  0.57641000  1.0
  C  C164  1  0.80261000  0.95215000  0.55938000  1.0
  C  C165  1  0.76440000  0.94403000  0.56300000  1.0
  C  C166  1  0.74615000  0.92422000  0.54457000  1.0
  C  C167  1  0.76647000  0.91016000  0.52304000  1.0
  C  C168  1  0.80570000  0.91409000  0.52162000  1.0
  C  C169  1  0.82359000  0.93431000  0.53960000  1.0
  C  C170  1  0.82634000  0.96878000  0.60581000  1.0
  C  C171  1  0.82595000  0.93524000  0.61344000  1.0
  C  C172  1  0.84650000  0.92359000  0.63560000  1.0
  C  C173  1  0.86804000  0.94495000  0.65068000  1.0
  C  C174  1  0.86389000  0.97890000  0.64572000  1.0
  C  C175  1  0.84310000  0.99070000  0.62370000  1.0
  C  C176  1  0.86059000  0.98671000  0.56437000  1.0
  C  C177  1  0.89543000  0.97417000  0.57558000  1.0
  C  C178  1  0.93053000  0.98127000  0.56435000  1.0
  C  C179  1  0.93196000  0.99995000  0.54108000  1.0
  C  C180  1  0.89817000  0.01069000  0.52874000  1.0
  C  C181  1  0.86314000  0.00397000  0.53996000  1.0
  C  C182  1  0.34287000  0.43960000  0.94556000  1.0
  C  C183  1  0.32266000  0.47446000  0.94175000  1.0
  C  C184  1  0.28352000  0.47910000  0.93583000  1.0
  C  C185  1  0.26384000  0.50903000  0.94166000  1.0
  C  C186  1  0.28322000  0.53550000  0.95204000  1.0
  C  C187  1  0.32300000  0.53341000  0.95210000  1.0
  C  C188  1  0.34252000  0.50353000  0.94637000  1.0
  C  C189  1  0.35974000  0.42586000  0.91884000  1.0
  C  C190  1  0.34018000  0.43109000  0.89456000  1.0
  C  C191  1  0.34404000  0.40803000  0.87379000  1.0
  C  C192  1  0.36813000  0.37965000  0.87650000  1.0
  C  C193  1  0.39174000  0.37687000  0.89878000  1.0
  C  C194  1  0.38715000  0.39905000  0.91973000  1.0
  C  C195  1  0.37456000  0.44351000  0.96685000  1.0
  C  C196  1  0.41240000  0.44961000  0.95900000  1.0
  C  C197  1  0.43939000  0.45932000  0.97719000  1.0
  C  C198  1  0.42942000  0.46459000  0.00367000  1.0
  C  C199  1  0.39235000  0.45948000  0.01208000  1.0
  C  C200  1  0.36513000  0.44964000  0.99382000  1.0
  C  C201  1  0.12240000  0.05745000  0.45280000  1.0
  C  C202  1  0.15414000  0.02994000  0.45134000  1.0
  C  C203  1  0.18964000  0.03699000  0.44020000  1.0
  C  C204  1  0.21917000  0.01294000  0.43884000  1.0
  C  C205  1  0.21421000  0.98090000  0.44824000  1.0
  C  C206  1  0.17833000  0.97293000  0.45781000  1.0
  C  C207  1  0.14844000  0.99693000  0.45892000  1.0
  C  C208  1  0.10945000  0.06602000  0.42369000  1.0
  C  C209  1  0.11968000  0.04553000  0.40185000  1.0
  C  C210  1  0.12145000  0.05862000  0.37625000  1.0
  C  C211  1  0.11165000  0.09199000  0.37169000  1.0
  C  C212  1  0.09349000  0.11026000  0.39204000  1.0
  C  C213  1  0.09123000  0.09699000  0.41763000  1.0
  C  C214  1  0.08824000  0.04690000  0.46977000  1.0
  C  C215  1  0.05353000  0.03804000  0.45814000  1.0
  C  C216  1  0.02338000  0.02800000  0.47384000  1.0
  C  C217  1  0.02718000  0.02595000  0.50142000  1.0
  C  C218  1  0.06141000  0.03402000  0.51328000  1.0
  C  C219  1  0.09149000  0.04441000  0.49768000  1.0
  C  C220  1  0.90845000  0.75911000  0.99846000  1.0
  C  C221  1  0.85270000  0.73873000  0.02335000  1.0
  C  C222  1  0.86404000  0.71321000  0.98609000  1.0
  C  C223  1  0.83280000  0.69928000  0.99721000  1.0
  C  C224  1  0.80949000  0.67486000  0.98769000  1.0
  C  C225  1  0.77863000  0.66774000  0.00405000  1.0
  C  C226  1  0.68218000  0.64453000  0.01796000  1.0
  C  C227  1  0.74814000  0.64837000  0.99962000  1.0
  C  C228  1  0.73725000  0.67354000  0.03714000  1.0
  C  C229  1  0.77166000  0.68381000  0.02800000  1.0
  C  C230  1  0.79485000  0.70842000  0.03741000  1.0
  C  C231  1  0.82567000  0.71549000  0.02105000  1.0
  C  C232  1  0.56224000  0.73266000  0.51244000  1.0
  C  C233  1  0.62864000  0.75170000  0.50556000  1.0
  C  C234  1  0.58361000  0.79015000  0.50568000  1.0
  C  C235  1  0.61751000  0.80582000  0.50561000  1.0
  C  C236  1  0.62497000  0.83936000  0.50677000  1.0
  C  C237  1  0.66353000  0.84648000  0.50791000  1.0
  C  C238  1  0.74661000  0.89557000  0.49949000  1.0
  C  C239  1  0.68089000  0.87615000  0.50762000  1.0
  C  C240  1  0.72620000  0.83795000  0.50753000  1.0
  C  C241  1  0.69240000  0.82203000  0.50785000  1.0
  C  C242  1  0.68494000  0.78843000  0.50661000  1.0
  C  C243  1  0.64630000  0.78130000  0.50552000  1.0
  C  C244  1  0.16826000  0.35460000  0.10146000  1.0
  C  C245  1  0.20915000  0.34109000  0.06205000  1.0
  C  C246  1  0.17775000  0.38832000  0.06042000  1.0
  C  C247  1  0.20580000  0.38920000  0.04124000  1.0
  C  C248  1  0.21713000  0.41489000  0.02475000  1.0
  C  C249  1  0.25048000  0.40818000  0.00996000  1.0
  C  C250  1  0.31424000  0.41160000  0.95304000  1.0
  C  C251  1  0.26781000  0.42611000  0.99053000  1.0
  C  C252  1  0.30066000  0.38000000  0.99408000  1.0
  C  C253  1  0.27111000  0.37857000  0.01187000  1.0
  C  C254  1  0.25948000  0.35266000  0.02790000  1.0
  C  C255  1  0.22595000  0.35914000  0.04247000  1.0
  C  C256  1  0.31749000  0.13213000  0.60141000  1.0
  C  C257  1  0.27341000  0.14795000  0.56362000  1.0
  C  C258  1  0.28948000  0.09584000  0.56666000  1.0
  C  C259  1  0.26134000  0.09864000  0.54762000  1.0
  C  C260  1  0.24245000  0.07455000  0.53337000  1.0
  C  C261  1  0.21292000  0.08647000  0.51669000  1.0
  C  C262  1  0.13780000  0.09066000  0.46457000  1.0
  C  C263  1  0.18887000  0.07033000  0.49992000  1.0
  C  C264  1  0.17372000  0.12241000  0.49683000  1.0
  C  C265  1  0.20311000  0.11965000  0.51466000  1.0
  C  C266  1  0.22160000  0.14376000  0.52905000  1.0
  C  C267  1  0.25120000  0.13193000  0.54561000  1.0
  C  C268  1  0.88912000  0.40266000  0.13198000  1.0
  C  C269  1  0.85123000  0.43358000  0.09768000  1.0
  C  C270  1  0.81991000  0.40016000  0.12220000  1.0
  C  C271  1  0.79335000  0.42166000  0.11073000  1.0
  C  C272  1  0.75412000  0.42622000  0.11514000  1.0
  C  C273  1  0.73652000  0.45383000  0.10270000  1.0
  C  C274  1  0.65978000  0.49383000  0.06619000  1.0
  C  C275  1  0.69870000  0.46341000  0.10047000  1.0
  C  C276  1  0.72962000  0.49599000  0.07503000  1.0
  C  C277  1  0.75628000  0.47474000  0.08672000  1.0
  C  C278  1  0.79552000  0.47011000  0.08222000  1.0
  C  C279  1  0.81329000  0.44288000  0.09501000  1.0
  C  C280  1  0.55876000  0.10002000  0.63953000  1.0
  C  C281  1  0.60152000  0.07213000  0.60531000  1.0
  C  C282  1  0.63020000  0.09240000  0.63934000  1.0
  C  C283  1  0.65747000  0.07395000  0.62541000  1.0
  C  C284  1  0.69602000  0.06624000  0.63092000  1.0
  C  C285  1  0.71479000  0.04442000  0.61301000  1.0
  C  C286  1  0.79562000  0.01293000  0.57416000  1.0
  C  C287  1  0.75258000  0.03380000  0.61109000  1.0
  C  C288  1  0.72422000  0.01511000  0.57642000  1.0
  C  C289  1  0.69667000  0.03213000  0.59106000  1.0
  C  C290  1  0.65819000  0.03998000  0.58544000  1.0
  C  C291  1  0.63920000  0.06113000  0.60363000  1.0
  C  C292  1  0.13760000  0.75820000  0.90165000  1.0
  C  C293  1  0.19061000  0.72438000  0.92275000  1.0
  C  C294  1  0.14413000  0.69576000  0.90871000  1.0
  C  C295  1  0.17132000  0.67360000  0.91872000  1.0
  C  C296  1  0.17189000  0.63919000  0.92089000  1.0
  C  C297  1  0.20506000  0.62442000  0.93192000  1.0
  C  C298  1  0.26221000  0.56220000  0.96787000  1.0
  C  C299  1  0.21388000  0.59218000  0.93895000  1.0
  C  C300  1  0.26150000  0.62057000  0.95142000  1.0
  C  C301  1  0.23534000  0.64260000  0.94003000  1.0
  C  C302  1  0.23452000  0.67709000  0.93825000  1.0
  C  C303  1  0.20120000  0.69183000  0.92738000  1.0
  C  C304  1  0.31801000  0.73698000  0.41068000  1.0
  C  C305  1  0.29292000  0.78274000  0.44072000  1.0
  C  C306  1  0.30448000  0.79689000  0.40003000  1.0
  C  C307  1  0.28706000  0.82412000  0.41209000  1.0
  C  C308  1  0.27775000  0.85585000  0.40236000  1.0
  C  C309  1  0.26088000  0.87803000  0.42078000  1.0
  C  C310  1  0.24884000  0.95799000  0.45217000  1.0
  C  C311  1  0.25381000  0.91170000  0.41929000  1.0
  C  C312  1  0.24215000  0.89757000  0.46001000  1.0
  C  C313  1  0.25341000  0.86902000  0.44676000  1.0
  C  C314  1  0.26231000  0.83712000  0.45641000  1.0
  C  C315  1  0.27966000  0.81510000  0.43809000  1.0
  C  C316  1  0.56188000  0.63155000  0.33941000  1.0
  C  C317  1  0.53781000  0.59134000  0.30664000  1.0
  C  C318  1  0.54403000  0.64105000  0.29195000  1.0
  C  C319  1  0.54181000  0.62107000  0.26992000  1.0
  C  C320  1  0.54788000  0.62784000  0.24293000  1.0
  C  C321  1  0.55006000  0.60034000  0.22606000  1.0
  C  C322  1  0.54702000  0.55467000  0.16391000  1.0
  C  C323  1  0.55511000  0.59791000  0.19893000  1.0
  C  C324  1  0.54906000  0.54815000  0.21350000  1.0
  C  C325  1  0.54616000  0.56860000  0.23537000  1.0
  C  C326  1  0.53965000  0.56182000  0.26231000  1.0
  C  C327  1  0.53783000  0.58934000  0.27926000  1.0
  C  C328  1  0.92948000  0.89324000  0.85172000  1.0
  C  C329  1  0.93176000  0.92633000  0.80975000  1.0
  C  C330  1  0.90927000  0.87786000  0.80490000  1.0
  C  C331  1  0.90629000  0.89321000  0.78047000  1.0
  C  C332  1  0.89242000  0.88235000  0.75602000  1.0
  C  C333  1  0.89342000  0.90514000  0.73508000  1.0
  C  C334  1  0.90194000  0.93124000  0.66634000  1.0
  C  C335  1  0.88554000  0.90186000  0.70839000  1.0
  C  C336  1  0.90716000  0.95064000  0.71350000  1.0
  C  C337  1  0.90729000  0.93626000  0.73833000  1.0
  C  C338  1  0.92155000  0.94698000  0.76271000  1.0
  C  C339  1  0.92047000  0.92421000  0.78363000  1.0
  C  C340  1  0.44638000  0.30831000  0.68442000  1.0
  C  C341  1  0.39601000  0.31919000  0.71902000  1.0
  C  C342  1  0.45100000  0.30113000  0.73393000  1.0
  C  C343  1  0.43024000  0.31219000  0.75574000  1.0
  C  C344  1  0.44036000  0.31510000  0.78262000  1.0
  C  C345  1  0.41268000  0.33069000  0.79906000  1.0
  C  C346  1  0.36128000  0.34900000  0.86041000  1.0
  C  C347  1  0.41176000  0.33587000  0.82619000  1.0
  C  C348  1  0.35713000  0.35430000  0.81088000  1.0
  C  C349  1  0.37777000  0.34242000  0.78937000  1.0
  C  C350  1  0.36757000  0.33931000  0.76258000  1.0
  C  C351  1  0.39519000  0.32375000  0.74616000  1.0
  C  C352  1  0.99094000  0.21326000  0.20888000  1.0
  C  C353  1  0.02504000  0.16558000  0.23058000  1.0
  C  C354  1  0.03913000  0.21361000  0.24560000  1.0
  C  C355  1  0.05325000  0.19064000  0.26374000  1.0
  C  C356  1  0.07077000  0.19431000  0.28856000  1.0
  C  C357  1  0.07799000  0.16497000  0.30288000  1.0
  C  C358  1  0.12878000  0.10924000  0.34830000  1.0
  C  C359  1  0.09730000  0.15883000  0.32633000  1.0
  C  C360  1  0.08153000  0.11128000  0.31124000  1.0
  C  C361  1  0.06809000  0.13458000  0.29328000  1.0
  C  C362  1  0.05072000  0.13095000  0.26854000  1.0
  C  C363  1  0.04396000  0.16010000  0.25412000  1.0
  C  C364  1  0.45711000  0.47757000  0.02126000  1.0
  C  C365  1  0.48425000  0.48825000  0.03227000  1.0
  C  C366  1  0.99557000  0.01620000  0.51741000  1.0
  C  C367  1  0.96774000  0.00789000  0.52927000  1.0
  N  N368  1  0.54055000  0.16008000  0.63263000  1.0
  N  N369  1  0.51416000  0.17544000  0.61795000  1.0
  N  N370  1  0.35249000  0.18463000  0.60480000  1.0
  N  N371  1  0.38811000  0.19171000  0.60006000  1.0
  N  N372  1  0.49712000  0.15449000  0.60270000  1.0
  N  N373  1  0.51137000  0.12421000  0.60661000  1.0
  N  N374  1  0.40706000  0.16619000  0.58970000  1.0
  N  N375  1  0.38491000  0.14101000  0.58717000  1.0
  N  N376  1  0.41652000  0.26872000  0.65331000  1.0
  N  N377  1  0.43135000  0.24569000  0.63727000  1.0
  N  N378  1  0.47832000  0.25976000  0.66184000  1.0
  N  N379  1  0.46781000  0.24049000  0.64230000  1.0
  N  N380  1  0.12343000  0.31699000  0.12232000  1.0
  N  N381  1  0.08683000  0.32022000  0.12816000  1.0
  N  N382  1  0.92134000  0.34800000  0.13146000  1.0
  N  N383  1  0.95795000  0.33955000  0.13042000  1.0
  N  N384  1  0.07108000  0.34551000  0.11504000  1.0
  N  N385  1  0.09708000  0.35969000  0.10046000  1.0
  N  N386  1  0.97667000  0.36294000  0.11879000  1.0
  N  N387  1  0.95270000  0.38801000  0.11308000  1.0
  N  N388  1  0.97777000  0.25582000  0.17511000  1.0
  N  N389  1  0.99788000  0.27747000  0.16262000  1.0
  N  N390  1  0.03942000  0.24654000  0.18379000  1.0
  N  N391  1  0.03445000  0.27167000  0.16705000  1.0
  N  N392  1  0.55270000  0.69981000  0.47106000  1.0
  N  N393  1  0.52194000  0.69241000  0.45768000  1.0
  N  N394  1  0.37825000  0.70681000  0.39658000  1.0
  N  N395  1  0.41035000  0.69826000  0.40895000  1.0
  N  N396  1  0.49187000  0.70924000  0.46678000  1.0
  N  N397  1  0.50166000  0.72832000  0.48667000  1.0
  N  N398  1  0.41115000  0.71275000  0.43238000  1.0
  N  N399  1  0.37954000  0.73114000  0.43623000  1.0
  N  N400  1  0.49746000  0.64822000  0.36060000  1.0
  N  N401  1  0.48838000  0.65652000  0.38543000  1.0
  N  N402  1  0.54945000  0.64732000  0.38628000  1.0
  N  N403  1  0.51904000  0.65573000  0.40038000  1.0
  N  N404  1  0.07611000  0.77224000  0.87808000  1.0
  N  N405  1  0.04035000  0.76586000  0.88284000  1.0
  N  N406  1  0.90552000  0.77341000  0.94975000  1.0
  N  N407  1  0.92846000  0.76613000  0.92955000  1.0
  N  N408  1  0.03764000  0.74837000  0.90466000  1.0
  N  N409  1  0.07153000  0.74265000  0.91547000  1.0
  N  N410  1  0.95822000  0.74811000  0.93757000  1.0
  N  N411  1  0.95640000  0.74251000  0.96333000  1.0
  N  N412  1  0.91587000  0.84014000  0.87464000  1.0
  N  N413  1  0.93497000  0.81152000  0.87679000  1.0
  N  N414  1  0.97065000  0.84056000  0.85175000  1.0
  N  N415  1  0.96700000  0.81175000  0.86342000  1.0
  N  N416  1  0.87620000  0.73776000  0.00194000  1.0
  N  N417  1  0.72240000  0.65225000  0.01961000  1.0
  N  N418  1  0.59023000  0.75700000  0.50595000  1.0
  N  N419  1  0.71929000  0.87110000  0.50710000  1.0
  N  N420  1  0.18034000  0.35920000  0.07381000  1.0
  N  N421  1  0.29859000  0.40887000  0.98017000  1.0
  N  N422  1  0.29668000  0.12592000  0.57678000  1.0
  N  N423  1  0.16453000  0.09242000  0.48727000  1.0
  N  N424  1  0.85559000  0.40821000  0.11512000  1.0
  N  N425  1  0.69384000  0.48893000  0.08297000  1.0
  N  N426  1  0.59573000  0.09096000  0.62736000  1.0
  N  N427  1  0.75893000  0.01581000  0.58850000  1.0
  N  N428  1  0.15560000  0.72711000  0.91144000  1.0
  N  N429  1  0.24826000  0.58972000  0.95117000  1.0
  N  N430  1  0.30815000  0.77145000  0.41745000  1.0
  N  N431  1  0.24344000  0.92398000  0.44348000  1.0
  N  N432  1  0.54292000  0.62283000  0.31457000  1.0
  N  N433  1  0.55417000  0.56598000  0.19105000  1.0
  N  N434  1  0.92510000  0.89803000  0.82293000  1.0
  N  N435  1  0.89447000  0.92947000  0.69497000  1.0
  N  N436  1  0.43043000  0.30597000  0.71128000  1.0
  N  N437  1  0.37753000  0.34989000  0.83360000  1.0
  N  N438  1  0.02125000  0.19834000  0.22543000  1.0
  N  N439  1  0.10019000  0.12590000  0.33126000  1.0
  O  O440  1  0.46203000  0.21899000  0.58575000  1.0
  O  O441  1  0.02723000  0.34531000  0.16510000  1.0
  O  O442  1  0.45838000  0.65108000  0.44087000  1.0
  O  O443  1  0.96242000  0.74149000  0.87895000  1.0
  O  O444  1  0.85541000  0.75936000  0.04329000  1.0
  O  O445  1  0.87978000  0.70397000  0.96342000  1.0
  O  O446  1  0.74160000  0.63301000  0.97721000  1.0
  O  O447  1  0.71849000  0.68652000  0.05748000  1.0
  O  O448  1  0.64620000  0.72257000  0.50794000  1.0
  O  O449  1  0.54977000  0.80491000  0.50833000  1.0
  O  O450  1  0.66307000  0.90508000  0.50466000  1.0
  O  O451  1  0.76007000  0.82337000  0.50449000  1.0
  O  O452  1  0.22349000  0.31301000  0.07149000  1.0
  O  O453  1  0.15669000  0.41412000  0.06822000  1.0
  O  O454  1  0.25362000  0.45418000  0.98129000  1.0
  O  O455  1  0.32382000  0.35471000  0.98815000  1.0
  O  O456  1  0.26940000  0.17939000  0.56967000  1.0
  O  O457  1  0.30410000  0.06782000  0.57602000  1.0
  O  O458  1  0.18795000  0.03818000  0.49855000  1.0
  O  O459  1  0.15767000  0.15059000  0.48884000  1.0
  O  O460  1  0.87934000  0.45113000  0.08935000  1.0
  O  O461  1  0.81246000  0.37945000  0.14139000  1.0
  O  O462  1  0.67116000  0.44501000  0.10847000  1.0
  O  O463  1  0.73688000  0.51419000  0.05420000  1.0
  O  O464  1  0.57414000  0.06254000  0.58979000  1.0
  O  O465  1  0.63568000  0.10637000  0.66249000  1.0
  O  O466  1  0.77973000  0.04539000  0.62579000  1.0
  O  O467  1  0.71924000  0.00556000  0.55175000  1.0
  O  O468  1  0.21206000  0.74940000  0.92725000  1.0
  O  O469  1  0.11321000  0.68753000  0.89620000  1.0
  O  O470  1  0.19001000  0.56829000  0.93802000  1.0
  O  O471  1  0.29228000  0.62879000  0.96411000  1.0
  O  O472  1  0.28908000  0.76453000  0.46207000  1.0
  O  O473  1  0.31382000  0.79487000  0.37476000  1.0
  O  O474  1  0.26327000  0.93004000  0.39903000  1.0
  O  O475  1  0.23817000  0.89986000  0.48593000  1.0
  O  O476  1  0.54094000  0.56570000  0.32257000  1.0
  O  O477  1  0.55432000  0.67173000  0.29120000  1.0
  O  O478  1  0.55578000  0.62309000  0.18256000  1.0
  O  O479  1  0.54310000  0.51646000  0.21375000  1.0
  O  O480  1  0.94516000  0.95263000  0.82091000  1.0
  O  O481  1  0.89661000  0.84871000  0.81041000  1.0
  O  O482  1  0.87688000  0.87417000  0.69686000  1.0
  O  O483  1  0.92287000  0.97851000  0.70781000  1.0
  O  O484  1  0.36972000  0.33081000  0.70252000  1.0
  O  O485  1  0.48740000  0.29222000  0.73437000  1.0
  O  O486  1  0.43774000  0.32438000  0.84298000  1.0
  O  O487  1  0.32092000  0.36381000  0.81019000  1.0
  O  O488  1  0.00705000  0.14301000  0.21753000  1.0
  O  O489  1  0.03698000  0.24562000  0.24958000  1.0
  O  O490  1  0.11561000  0.18090000  0.33970000  1.0
  O  O491  1  0.08199000  0.07927000  0.30737000  1.0
