# generated using pymatgen
data_Cd36H209C288(NO4)36
_symmetry_space_group_name_H-M   'P 1'
_cell_length_a   11.52780000
_cell_length_b   35.50018658
_cell_length_c   35.49920000
_cell_angle_alpha   119.99924205
_cell_angle_beta   90.00000000
_cell_angle_gamma   90.00000000
_symmetry_Int_Tables_number   1
_chemical_formula_structural   Cd36H209C288(NO4)36
_chemical_formula_sum   'Cd36 H209 C288 N36 O144'
_cell_volume   12581.41776862
_cell_formula_units_Z   1
loop_
 _symmetry_equiv_pos_site_id
 _symmetry_equiv_pos_as_xyz
  1  'x, y, z'
loop_
 _atom_site_type_symbol
 _atom_site_label
 _atom_site_symmetry_multiplicity
 _atom_site_fract_x
 _atom_site_fract_y
 _atom_site_fract_z
 _atom_site_occupancy
  C  C0  1  0.85390000  0.97892000  0.10542000  1.0
  C  C1  1  0.86097000  0.91915000  0.19439000  1.0
  C  C2  1  0.60713000  0.89761000  0.13987000  1.0
  C  C3  1  0.85549000  0.86044000  0.04596000  1.0
  C  C4  1  0.15728000  0.69524000  0.10486000  1.0
  C  C5  1  0.88296000  0.74793000  0.05631000  1.0
  C  C6  1  0.20936000  0.82312000  0.12090000  1.0
  C  C7  1  0.00237000  0.80903000  0.19757000  1.0
  C  C8  1  0.76826000  0.04992000  0.95029000  1.0
  C  C9  1  0.84458000  0.18445000  0.00241000  1.0
  C  C10  1  0.59324000  0.16450000  0.06183000  1.0
  C  C11  1  0.88038000  0.09837000  0.07120000  1.0
  C  C12  1  0.03544000  0.33102000  0.25420000  1.0
  C  C13  1  0.86732000  0.21893000  0.17246000  1.0
  C  C14  1  0.20919000  0.22565000  0.13363000  1.0
  C  C15  1  0.01495000  0.31380000  0.12758000  1.0
  C  C16  1  0.79919000  0.81343000  0.89050000  1.0
  C  C17  1  0.82015000  0.74411000  0.76438000  1.0
  C  C18  1  0.56771000  0.81957000  0.78222000  1.0
  C  C19  1  0.84411000  0.90007000  0.85008000  1.0
  C  C20  1  0.04271000  0.84393000  0.61488000  1.0
  C  C21  1  0.80709000  0.86861000  0.71204000  1.0
  C  C22  1  0.16874000  0.83150000  0.72720000  1.0
  C  C23  1  0.97890000  0.73752000  0.63305000  1.0
  C  C24  1  0.38071000  0.31642000  0.77577000  1.0
  C  C25  1  0.49930000  0.27332000  0.85363000  1.0
  C  C26  1  0.23418000  0.20782000  0.78790000  1.0
  C  C27  1  0.52353000  0.20133000  0.70281000  1.0
  C  C28  1  0.67463000  0.02024000  0.75449000  1.0
  C  C29  1  0.52286000  0.10598000  0.72307000  1.0
  C  C30  1  0.84104000  0.14687000  0.77798000  1.0
  C  C31  1  0.65564000  0.14661000  0.86500000  1.0
  C  C32  1  0.52003000  0.37902000  0.60990000  1.0
  C  C33  1  0.50933000  0.51180000  0.66835000  1.0
  C  C34  1  0.25732000  0.48624000  0.71694000  1.0
  C  C35  1  0.46957000  0.41825000  0.72967000  1.0
  C  C36  1  0.74109000  0.66322000  0.89800000  1.0
  C  C37  1  0.57587000  0.54047000  0.83880000  1.0
  C  C38  1  0.87541000  0.54670000  0.78904000  1.0
  C  C39  1  0.64498000  0.62014000  0.76484000  1.0
  C  C40  1  0.45111000  0.18498000  0.55666000  1.0
  C  C41  1  0.47091000  0.07538000  0.41598000  1.0
  C  C42  1  0.23091000  0.14482000  0.43540000  1.0
  C  C43  1  0.52306000  0.22886000  0.48327000  1.0
  C  C44  1  0.72996000  0.14637000  0.25358000  1.0
  C  C45  1  0.51534000  0.19716000  0.36160000  1.0
  C  C46  1  0.84317000  0.14410000  0.37177000  1.0
  C  C47  1  0.64890000  0.05261000  0.28556000  1.0
  C  C48  1  0.15354000  0.67498000  0.47402000  1.0
  C  C49  1  0.19992000  0.60187000  0.53974000  1.0
  C  C50  1  0.92825000  0.56900000  0.48015000  1.0
  C  C51  1  0.18912000  0.54684000  0.39118000  1.0
  C  C52  1  0.44772000  0.35763000  0.41809000  1.0
  C  C53  1  0.17178000  0.43225000  0.40769000  1.0
  C  C54  1  0.53374000  0.49208000  0.45935000  1.0
  C  C55  1  0.33693000  0.47941000  0.53538000  1.0
  C  C56  1  0.11681000  0.70905000  0.27286000  1.0
  C  C57  1  0.18037000  0.84924000  0.33871000  1.0
  C  C58  1  0.92159000  0.82663000  0.37037000  1.0
  C  C59  1  0.17519000  0.76264000  0.39993000  1.0
  C  C60  1  0.46062000  0.99887000  0.56602000  1.0
  C  C61  1  0.19916000  0.89155000  0.51323000  1.0
  C  C62  1  0.53162000  0.87646000  0.44707000  1.0
  C  C63  1  0.32136000  0.96803000  0.44978000  1.0
  C  C64  1  0.18113000  0.47405000  0.23601000  1.0
  C  C65  1  0.26085000  0.40746000  0.09613000  1.0
  C  C66  1  0.98938000  0.46430000  0.12269000  1.0
  C  C67  1  0.23175000  0.55701000  0.19349000  1.0
  C  C68  1  0.51288000  0.48998000  0.94815000  1.0
  C  C69  1  0.28070000  0.54536000  0.06453000  1.0
  C  C70  1  0.59617000  0.48500000  0.06888000  1.0
  C  C71  1  0.37701000  0.40349000  0.98565000  1.0
  C  C72  1  0.84041000  0.67023000  0.01724000  1.0
  C  C73  1  0.79751000  0.70938000  0.97887000  1.0
  C  C74  1  0.83227000  0.70985000  0.01746000  1.0
  C  C75  1  0.77380000  0.66900000  0.94091000  1.0
  C  C76  1  0.78872000  0.63033000  0.94187000  1.0
  C  C77  1  0.82153000  0.63062000  0.97964000  1.0
  C  C78  1  0.71320000  0.22267000  0.28086000  1.0
  C  C79  1  0.78095000  0.17869000  0.20674000  1.0
  C  C80  1  0.73804000  0.18212000  0.24523000  1.0
  C  C81  1  0.79200000  0.21673000  0.20424000  1.0
  C  C82  1  0.75507000  0.25671000  0.23908000  1.0
  C  C83  1  0.71922000  0.25987000  0.27799000  1.0
  C  C84  1  0.61034000  0.88384000  0.69671000  1.0
  C  C85  1  0.74575000  0.94412000  0.73062000  1.0
  C  C86  1  0.72062000  0.89966000  0.71347000  1.0
  C  C87  1  0.65833000  0.97265000  0.73237000  1.0
  C  C88  1  0.54965000  0.95577000  0.71402000  1.0
  C  C89  1  0.52520000  0.91151000  0.69605000  1.0
  C  C90  1  0.74093000  0.24358000  0.99715000  1.0
  C  C91  1  0.76860000  0.17390000  0.93319000  1.0
  C  C92  1  0.79706000  0.20343000  0.97672000  1.0
  C  C93  1  0.67908000  0.18164000  0.91074000  1.0
  C  C94  1  0.62189000  0.22165000  0.93214000  1.0
  C  C95  1  0.65362000  0.25299000  0.97518000  1.0
  C  C96  1  0.62124000  0.74125000  0.79243000  1.0
  C  C97  1  0.70681000  0.67351000  0.74213000  1.0
  C  C98  1  0.71058000  0.71926000  0.76222000  1.0
  C  C99  1  0.61480000  0.65276000  0.75219000  1.0
  C  C100  1  0.51319000  0.67583000  0.77037000  1.0
  C  C101  1  0.51803000  0.72085000  0.79316000  1.0
  C  C102  1  0.67499000  0.91447000  0.23170000  1.0
  C  C103  1  0.75577000  0.98345000  0.24950000  1.0
  C  C104  1  0.76565000  0.93833000  0.22737000  1.0
  C  C105  1  0.65397000  0.00559000  0.27177000  1.0
  C  C106  1  0.56450000  0.98157000  0.27576000  1.0
  C  C107  1  0.57570000  0.93600000  0.25684000  1.0
  C  C108  1  0.61857000  0.11297000  0.66575000  1.0
  C  C109  1  0.47064000  0.05752000  0.64487000  1.0
  C  C110  1  0.52835000  0.09433000  0.67738000  1.0
  C  C111  1  0.50257000  0.04069000  0.60118000  1.0
  C  C112  1  0.58601000  0.06221000  0.59017000  1.0
  C  C113  1  0.64408000  0.09848000  0.62224000  1.0
  C  C114  1  0.63001000  0.44962000  0.88270000  1.0
  C  C115  1  0.53917000  0.51623000  0.89404000  1.0
  C  C116  1  0.55981000  0.48572000  0.90775000  1.0
  C  C117  1  0.58987000  0.50990000  0.85512000  1.0
  C  C118  1  0.66240000  0.47401000  0.83123000  1.0
  C  C119  1  0.68197000  0.44359000  0.84451000  1.0
  C  C120  1  0.42186000  0.30157000  0.34212000  1.0
  C  C121  1  0.46144000  0.27679000  0.39349000  1.0
  C  C122  1  0.44312000  0.31112000  0.38480000  1.0
  C  C123  1  0.45934000  0.23323000  0.35890000  1.0
  C  C124  1  0.43528000  0.22497000  0.31666000  1.0
  C  C125  1  0.41980000  0.25887000  0.30792000  1.0
  C  C126  1  0.37296000  0.56769000  0.67234000  1.0
  C  C127  1  0.45064000  0.51351000  0.60376000  1.0
  C  C128  1  0.45888000  0.53675000  0.64920000  1.0
  C  C129  1  0.34875000  0.51377000  0.58180000  1.0
  C  C130  1  0.26294000  0.54391000  0.60534000  1.0
  C  C131  1  0.27588000  0.57205000  0.65048000  1.0
  C  C132  1  0.24479000  0.96830000  0.38218000  1.0
  C  C133  1  0.39380000  0.01793000  0.42702000  1.0
  C  C134  1  0.31361000  0.98500000  0.41935000  1.0
  C  C135  1  0.40797000  0.03399000  0.39893000  1.0
  C  C136  1  0.33806000  0.01741000  0.36190000  1.0
  C  C137  1  0.25755000  0.98400000  0.35283000  1.0
  C  C138  1  0.22600000  0.35855000  0.93554000  1.0
  C  C139  1  0.41980000  0.32803000  0.92759000  1.0
  C  C140  1  0.33598000  0.36053000  0.95251000  1.0
  C  C141  1  0.40026000  0.29815000  0.88364000  1.0
  C  C142  1  0.29600000  0.30333000  0.86600000  1.0
  C  C143  1  0.20739000  0.33152000  0.89139000  1.0
  C  C144  1  0.96839000  0.41262000  0.39078000  1.0
  C  C145  1  0.10782000  0.37699000  0.33195000  1.0
  C  C146  1  0.08292000  0.40525000  0.37634000  1.0
  C  C147  1  0.01633000  0.35771000  0.30193000  1.0
  C  C148  1  0.90186000  0.36616000  0.31747000  1.0
  C  C149  1  0.87730000  0.39385000  0.36169000  1.0
  C  C150  1  0.09699000  0.94081000  0.58012000  1.0
  C  C151  1  0.10824000  0.86474000  0.55998000  1.0
  C  C152  1  0.12732000  0.89783000  0.54992000  1.0
  C  C153  1  0.05610000  0.87520000  0.59984000  1.0
  C  C154  1  0.02534000  0.91821000  0.62929000  1.0
  C  C155  1  0.04713000  0.95131000  0.62000000  1.0
  C  C156  1  0.29980000  0.68172000  0.14751000  1.0
  C  C157  1  0.21311000  0.61975000  0.08498000  1.0
  C  C158  1  0.22368000  0.66467000  0.11207000  1.0
  C  C159  1  0.28146000  0.59215000  0.09314000  1.0
  C  C160  1  0.36035000  0.60937000  0.12779000  1.0
  C  C161  1  0.36884000  0.65414000  0.15554000  1.0
  C  C162  1  0.90832000  0.86934000  0.26677000  1.0
  C  C163  1  0.08040000  0.83327000  0.27085000  1.0
  C  C164  1  0.99222000  0.83757000  0.24555000  1.0
  C  C165  1  0.08841000  0.86003000  0.31586000  1.0
  C  C166  1  0.00314000  0.89193000  0.33672000  1.0
  C  C167  1  0.91305000  0.89678000  0.31238000  1.0
  C  C168  1  0.05118000  0.29221000  0.04942000  1.0
  C  C169  1  0.10622000  0.36340000  0.10638000  1.0
  C  C170  1  0.04383000  0.32446000  0.09301000  1.0
  C  C171  1  0.17967000  0.36946000  0.07802000  1.0
  C  C172  1  0.18448000  0.33660000  0.03452000  1.0
  C  C173  1  0.12182000  0.29767000  0.02013000  1.0
  C  C174  1  0.02117000  0.59972000  0.58193000  1.0
  C  C175  1  0.08097000  0.66727000  0.58807000  1.0
  C  C176  1  0.10025000  0.62256000  0.57086000  1.0
  C  C177  1  0.98683000  0.68974000  0.61598000  1.0
  C  C178  1  0.91140000  0.66659000  0.62756000  1.0
  C  C179  1  0.92824000  0.62156000  0.61078000  1.0
  C  C180  1  0.99094000  0.80868000  0.91893000  1.0
  C  C181  1  0.82621000  0.82928000  0.96704000  1.0
  C  C182  1  0.87075000  0.81537000  0.92577000  1.0
  C  C183  1  0.90086000  0.83732000  0.00163000  1.0
  C  C184  1  0.02010000  0.83028000  0.99435000  1.0
  C  C185  1  0.06602000  0.81641000  0.95301000  1.0
  C  C186  1  0.98389000  0.97417000  0.04809000  1.0
  C  C187  1  0.88117000  0.04160000  0.09248000  1.0
  C  C188  1  0.90791000  0.99920000  0.08247000  1.0
  C  C189  1  0.93202000  0.05943000  0.06878000  1.0
  C  C190  1  0.00868000  0.03416000  0.03481000  1.0
  C  C191  1  0.03256000  0.99106000  0.02352000  1.0
  C  C192  1  0.67085000  0.01232000  0.87937000  1.0
  C  C193  1  0.84207000  0.97930000  0.88989000  1.0
  C  C194  1  0.76389000  0.01415000  0.90523000  1.0
  C  C195  1  0.82113000  0.94073000  0.85025000  1.0
  C  C196  1  0.72781000  0.93980000  0.82449000  1.0
  C  C197  1  0.65186000  0.97527000  0.83898000  1.0
  C  C198  1  0.56283000  0.24617000  0.61301000  1.0
  C  C199  1  0.50364000  0.18954000  0.62773000  1.0
  C  C200  1  0.50555000  0.20691000  0.59992000  1.0
  C  C201  1  0.55689000  0.21200000  0.66908000  1.0
  C  C202  1  0.61623000  0.25083000  0.68115000  1.0
  C  C203  1  0.61857000  0.26827000  0.65336000  1.0
  C  C204  1  0.31247000  0.39147000  0.81802000  1.0
  C  C205  1  0.45430000  0.37273000  0.76135000  1.0
  C  C206  1  0.37841000  0.36042000  0.78373000  1.0
  C  C207  1  0.45399000  0.41533000  0.76885000  1.0
  C  C208  1  0.38333000  0.44618000  0.80231000  1.0
  C  C209  1  0.31540000  0.43477000  0.82798000  1.0
  C  C210  1  0.70490000  0.33884000  0.57988000  1.0
  C  C211  1  0.52720000  0.30676000  0.54119000  1.0
  C  C212  1  0.58477000  0.34170000  0.57550000  1.0
  C  C213  1  0.58793000  0.26864000  0.51224000  1.0
  C  C214  1  0.70776000  0.26662000  0.51673000  1.0
  C  C215  1  0.76675000  0.30149000  0.55074000  1.0
  C  C216  1  0.06937000  0.48264000  0.35042000  1.0
  C  C217  1  0.22393000  0.49624000  0.31280000  1.0
  C  C218  1  0.17362000  0.50394000  0.35217000  1.0
  C  C219  1  0.17128000  0.46712000  0.27291000  1.0
  C  C220  1  0.07226000  0.44449000  0.27220000  1.0
  C  C221  1  0.01506000  0.45518000  0.31063000  1.0
  C  C222  1  0.31400000  0.77522000  0.45875000  1.0
  C  C223  1  0.15844000  0.72326000  0.44136000  1.0
  C  C224  1  0.21536000  0.75435000  0.43444000  1.0
  C  C225  1  0.20169000  0.71219000  0.47145000  1.0
  C  C226  1  0.30226000  0.73283000  0.49488000  1.0
  C  C227  1  0.35891000  0.76421000  0.48862000  1.0
  C  C228  1  0.10688000  0.58642000  0.15846000  1.0
  C  C229  1  0.20249000  0.63595000  0.22565000  1.0
  C  C230  1  0.19358000  0.59407000  0.18917000  1.0
  C  C231  1  0.12505000  0.66882000  0.23114000  1.0
  C  C232  1  0.04408000  0.66105000  0.19890000  1.0
  C  C233  1  0.03583000  0.61992000  0.16192000  1.0
  C  C234  1  0.24534000  0.87906000  0.10079000  1.0
  C  C235  1  0.40963000  0.85765000  0.12920000  1.0
  C  C236  1  0.28982000  0.85369000  0.11715000  1.0
  C  C237  1  0.48307000  0.88679000  0.12406000  1.0
  C  C238  1  0.43401000  0.91050000  0.10576000  1.0
  C  C239  1  0.31638000  0.90725000  0.09474000  1.0
  C  C240  1  0.52508000  0.16392000  0.12608000  1.0
  C  C241  1  0.39811000  0.19562000  0.09509000  1.0
  C  C242  1  0.50913000  0.18025000  0.09783000  1.0
  C  C243  1  0.30458000  0.19397000  0.12007000  1.0
  C  C244  1  0.32224000  0.17483000  0.14580000  1.0
  C  C245  1  0.43205000  0.15978000  0.14897000  1.0
  C  C246  1  0.24770000  0.76342000  0.71700000  1.0
  C  C247  1  0.36225000  0.82835000  0.76010000  1.0
  C  C248  1  0.25541000  0.80877000  0.73965000  1.0
  C  C249  1  0.46107000  0.80232000  0.75503000  1.0
  C  C250  1  0.45282000  0.75740000  0.72736000  1.0
  C  C251  1  0.34599000  0.73764000  0.70997000  1.0
  C  C252  1  0.10844000  0.23031000  0.85228000  1.0
  C  C253  1  0.03849000  0.17630000  0.78159000  1.0
  C  C254  1  0.13053000  0.20128000  0.80823000  1.0
  C  C255  1  0.92546000  0.18212000  0.79827000  1.0
  C  C256  1  0.90281000  0.21574000  0.84045000  1.0
  C  C257  1  0.99396000  0.24015000  0.86772000  1.0
  C  C258  1  0.02759000  0.53193000  0.82468000  1.0
  C  C259  1  0.05057000  0.50407000  0.74738000  1.0
  C  C260  1  0.97704000  0.51955000  0.78412000  1.0
  C  C261  1  0.17261000  0.50759000  0.75309000  1.0
  C  C262  1  0.21686000  0.52972000  0.79536000  1.0
  C  C263  1  0.14605000  0.54081000  0.83115000  1.0
  C  C264  1  0.09016000  0.08606000  0.41510000  1.0
  C  C265  1  0.03785000  0.14506000  0.40300000  1.0
  C  C266  1  0.12243000  0.12314000  0.41338000  1.0
  C  C267  1  0.92203000  0.13016000  0.39492000  1.0
  C  C268  1  0.89140000  0.09368000  0.39789000  1.0
  C  C269  1  0.97530000  0.07116000  0.40747000  1.0
  C  C270  1  0.61627000  0.51089000  0.40678000  1.0
  C  C271  1  0.73276000  0.52907000  0.47084000  1.0
  C  C272  1  0.62766000  0.51253000  0.44672000  1.0
  C  C273  1  0.82434000  0.54354000  0.45438000  1.0
  C  C274  1  0.80896000  0.54033000  0.41362000  1.0
  C  C275  1  0.70628000  0.52431000  0.38990000  1.0
  C  C276  1  0.57847000  0.79904000  0.39833000  1.0
  C  C277  1  0.72708000  0.85267000  0.41050000  1.0
  C  C278  1  0.61261000  0.84235000  0.41740000  1.0
  C  C279  1  0.80657000  0.81929000  0.38526000  1.0
  C  C280  1  0.77112000  0.77592000  0.36916000  1.0
  C  C281  1  0.65795000  0.76565000  0.37526000  1.0
  C  C282  1  0.64956000  0.52255000  0.14657000  1.0
  C  C283  1  0.79528000  0.47612000  0.09420000  1.0
  C  C284  1  0.68128000  0.49400000  0.10358000  1.0
  C  C285  1  0.87690000  0.48786000  0.12794000  1.0
  C  C286  1  0.84271000  0.51850000  0.17067000  1.0
  C  C287  1  0.72958000  0.53518000  0.18021000  1.0
  Cd  Cd288  1  0.79602000  0.82808000  0.14093000  1.0
  Cd  Cd289  1  0.94668000  0.84005000  0.11061000  1.0
  Cd  Cd290  1  0.08190000  0.76765000  0.12317000  1.0
  Cd  Cd291  1  0.79426000  0.91841000  0.11668000  1.0
  Cd  Cd292  1  0.81994000  0.23132000  0.09553000  1.0
  Cd  Cd293  1  0.95408000  0.18437000  0.08312000  1.0
  Cd  Cd294  1  0.05555000  0.28142000  0.17354000  1.0
  Cd  Cd295  1  0.76379000  0.11614000  0.02335000  1.0
  Cd  Cd296  1  0.76515000  0.77966000  0.70679000  1.0
  Cd  Cd297  1  0.90128000  0.81878000  0.75217000  1.0
  Cd  Cd298  1  0.02557000  0.81719000  0.66711000  1.0
  Cd  Cd299  1  0.74754000  0.83128000  0.83325000  1.0
  Cd  Cd300  1  0.46035000  0.17925000  0.81881000  1.0
  Cd  Cd301  1  0.59564000  0.19395000  0.78290000  1.0
  Cd  Cd302  1  0.69258000  0.09983000  0.78605000  1.0
  Cd  Cd303  1  0.40143000  0.24279000  0.76696000  1.0
  Cd  Cd304  1  0.47618000  0.55041000  0.76179000  1.0
  Cd  Cd305  1  0.60529000  0.50567000  0.74976000  1.0
  Cd  Cd306  1  0.72189000  0.60176000  0.81958000  1.0
  Cd  Cd307  1  0.42504000  0.43579000  0.67524000  1.0
  Cd  Cd308  1  0.44093000  0.11228000  0.36064000  1.0
  Cd  Cd309  1  0.57733000  0.14830000  0.40498000  1.0
  Cd  Cd310  1  0.70568000  0.12820000  0.31150000  1.0
  Cd  Cd311  1  0.41115000  0.16935000  0.48115000  1.0
  Cd  Cd312  1  0.12833000  0.51177000  0.49333000  1.0
  Cd  Cd313  1  0.27813000  0.52067000  0.45746000  1.0
  Cd  Cd314  1  0.39481000  0.43667000  0.45900000  1.0
  Cd  Cd315  1  0.11407000  0.60212000  0.46458000  1.0
  Cd  Cd316  1  0.11716000  0.89383000  0.43134000  1.0
  Cd  Cd317  1  0.26341000  0.84955000  0.41928000  1.0
  Cd  Cd318  1  0.39701000  0.93797000  0.49512000  1.0
  Cd  Cd319  1  0.10136000  0.77680000  0.34315000  1.0
  Cd  Cd320  1  0.19127000  0.45854000  0.05600000  1.0
  Cd  Cd321  1  0.33894000  0.49229000  0.10113000  1.0
  Cd  Cd322  1  0.46256000  0.47597000  0.00950000  1.0
  Cd  Cd323  1  0.17309000  0.48172000  0.17176000  1.0
  H  H324  1  0.77814000  0.59938000  0.91259000  1.0
  H  H325  1  0.86835000  0.66976000  0.04609000  1.0
  H  H326  1  0.79393000  0.73923000  0.97787000  1.0
  H  H327  1  0.93043000  0.58897000  0.98319000  1.0
  H  H328  1  0.81615000  0.56440000  0.95142000  1.0
  H  H329  1  0.80958000  0.59242000  0.00654000  1.0
  H  H330  1  0.76294000  0.28596000  0.23717000  1.0
  H  H331  1  0.69276000  0.22593000  0.31192000  1.0
  H  H332  1  0.81107000  0.14782000  0.18058000  1.0
  H  H333  1  0.66535000  0.32197000  0.30725000  1.0
  H  H334  1  0.77802000  0.31158000  0.33050000  1.0
  H  H335  1  0.65332000  0.29848000  0.33866000  1.0
  H  H336  1  0.48276000  0.97719000  0.71424000  1.0
  H  H337  1  0.59083000  0.84973000  0.68346000  1.0
  H  H338  1  0.83036000  0.95655000  0.74420000  1.0
  H  H339  1  0.42338000  0.86856000  0.64784000  1.0
  H  H340  1  0.36074000  0.91771000  0.67838000  1.0
  H  H341  1  0.37833000  0.88145000  0.69521000  1.0
  H  H342  1  0.55230000  0.22829000  0.91601000  1.0
  H  H343  1  0.75726000  0.26607000  0.03117000  1.0
  H  H344  1  0.81102000  0.14256000  0.91804000  1.0
  H  H345  1  0.54207000  0.29156000  0.02121000  1.0
  H  H346  1  0.53932000  0.29807000  0.97816000  1.0
  H  H347  1  0.64733000  0.31780000  0.01566000  1.0
  H  H348  1  0.43948000  0.65977000  0.77504000  1.0
  H  H349  1  0.63353000  0.77365000  0.81766000  1.0
  H  H350  1  0.78425000  0.65543000  0.72628000  1.0
  H  H351  1  0.35288000  0.72853000  0.82054000  1.0
  H  H352  1  0.48589000  0.99764000  0.29218000  1.0
  H  H353  1  0.67819000  0.87938000  0.21401000  1.0
  H  H354  1  0.82773000  0.00124000  0.24649000  1.0
  H  H355  1  0.50566000  0.88006000  0.24984000  1.0
  H  H356  1  0.41335000  0.91363000  0.24473000  1.0
  H  H357  1  0.45568000  0.92680000  0.29253000  1.0
  H  H358  1  0.60899000  0.04994000  0.55648000  1.0
  H  H359  1  0.67171000  0.13815000  0.69075000  1.0
  H  H360  1  0.40843000  0.04051000  0.65367000  1.0
  H  H361  1  0.75937000  0.14738000  0.63618000  1.0
  H  H362  1  0.70668000  0.12153000  0.58472000  1.0
  H  H363  1  0.80098000  0.09753000  0.59828000  1.0
  H  H364  1  0.70326000  0.46953000  0.80187000  1.0
  H  H365  1  0.64500000  0.42622000  0.89318000  1.0
  H  H366  1  0.48518000  0.54425000  0.91321000  1.0
  H  H367  1  0.78954000  0.40412000  0.79198000  1.0
  H  H368  1  0.43792000  0.19193000  0.28977000  1.0
  H  H369  1  0.41076000  0.32755000  0.33487000  1.0
  H  H370  1  0.48465000  0.28393000  0.42585000  1.0
  H  H371  1  0.33854000  0.26455000  0.26101000  1.0
  H  H372  1  0.41628000  0.21835000  0.24226000  1.0
  H  H373  1  0.47530000  0.26741000  0.25919000  1.0
  H  H374  1  0.18461000  0.54435000  0.58926000  1.0
  H  H375  1  0.37480000  0.58492000  0.70748000  1.0
  H  H376  1  0.51742000  0.48962000  0.58640000  1.0
  H  H377  1  0.11085000  0.58421000  0.67027000  1.0
  H  H378  1  0.16335000  0.61896000  0.65965000  1.0
  H  H379  1  0.20446000  0.62068000  0.70636000  1.0
  H  H380  1  0.34061000  0.03207000  0.34161000  1.0
  H  H381  1  0.18299000  0.94346000  0.37592000  1.0
  H  H382  1  0.44571000  0.03269000  0.45633000  1.0
  H  H383  1  0.15782000  0.93694000  0.30547000  1.0
  H  H384  1  0.22747000  0.96973000  0.29080000  1.0
  H  H385  1  0.11566000  0.98719000  0.32278000  1.0
  H  H386  1  0.28332000  0.28718000  0.83203000  1.0
  H  H387  1  0.16138000  0.38268000  0.95466000  1.0
  H  H388  1  0.50676000  0.33086000  0.93986000  1.0
  H  H389  1  0.04410000  0.35745000  0.89174000  1.0
  H  H390  1  0.83086000  0.35327000  0.29478000  1.0
  H  H391  1  0.94973000  0.43502000  0.42469000  1.0
  H  H392  1  0.19645000  0.37224000  0.32068000  1.0
  H  H393  1  0.74955000  0.42555000  0.40908000  1.0
  H  H394  1  0.98989000  0.92646000  0.66072000  1.0
  H  H395  1  0.11723000  0.96664000  0.57343000  1.0
  H  H396  1  0.13712000  0.83194000  0.53803000  1.0
  H  H397  1  0.10338000  0.00650000  0.66983000  1.0
  H  H398  1  0.96555000  0.99844000  0.67368000  1.0
  H  H399  1  0.01466000  0.01448000  0.63867000  1.0
  H  H400  1  0.41455000  0.58776000  0.13337000  1.0
  H  H401  1  0.30541000  0.71652000  0.16881000  1.0
  H  H402  1  0.15370000  0.60647000  0.05781000  1.0
  H  H403  1  0.49467000  0.64957000  0.19548000  1.0
  H  H404  1  0.00412000  0.91195000  0.37170000  1.0
  H  H405  1  0.84017000  0.87275000  0.24824000  1.0
  H  H406  1  0.14568000  0.80831000  0.25540000  1.0
  H  H407  1  0.84275000  0.94872000  0.36577000  1.0
  H  H408  1  0.74846000  0.91278000  0.33034000  1.0
  H  H409  1  0.81049000  0.94491000  0.31741000  1.0
  H  H410  1  0.24291000  0.33984000  0.01260000  1.0
  H  H411  1  0.01292000  0.26112000  0.03884000  1.0
  H  H412  1  0.10608000  0.38755000  0.14049000  1.0
  H  H413  1  0.18330000  0.23812000  0.98088000  1.0
  H  H414  1  0.18816000  0.26974000  0.95859000  1.0
  H  H415  1  0.06443000  0.24669000  0.96428000  1.0
  H  H416  1  0.84030000  0.68328000  0.64944000  1.0
  H  H417  1  0.02904000  0.56500000  0.56769000  1.0
  H  H418  1  0.14173000  0.68490000  0.57956000  1.0
  H  H419  1  0.81260000  0.57405000  0.59540000  1.0
  H  H420  1  0.79171000  0.61726000  0.64513000  1.0
  H  H421  1  0.89890000  0.58058000  0.63318000  1.0
  H  H422  1  0.07807000  0.83790000  0.02108000  1.0
  H  H423  1  0.02796000  0.79991000  0.88763000  1.0
  H  H424  1  0.73447000  0.83584000  0.97258000  1.0
  H  H425  1  0.20959000  0.79189000  0.91538000  1.0
  H  H426  1  0.23136000  0.81014000  0.96922000  1.0
  H  H427  1  0.21391000  0.84353000  0.95032000  1.0
  H  H428  1  0.04275000  0.04672000  0.01490000  1.0
  H  H429  1  0.00144000  0.94080000  0.03923000  1.0
  H  H430  1  0.81773000  0.06000000  0.11743000  1.0
  H  H431  1  0.11224000  0.93263000  0.97868000  1.0
  H  H432  1  0.70317000  0.90937000  0.79663000  1.0
  H  H433  1  0.60920000  0.03881000  0.89156000  1.0
  H  H434  1  0.90795000  0.97963000  0.91172000  1.0
  H  H435  1  0.47874000  0.97496000  0.83567000  1.0
  H  H436  1  0.54160000  0.94307000  0.78761000  1.0
  H  H437  1  0.53789000  0.99834000  0.81274000  1.0
  H  H438  1  0.65364000  0.26912000  0.71326000  1.0
  H  H439  1  0.56403000  0.25984000  0.59182000  1.0
  H  H440  1  0.45575000  0.15997000  0.61826000  1.0
  H  H441  1  0.70706000  0.32270000  0.69691000  1.0
  H  H442  1  0.61341000  0.32927000  0.66414000  1.0
  H  H443  1  0.73227000  0.30530000  0.64388000  1.0
  H  H444  1  0.37313000  0.47796000  0.80638000  1.0
  H  H445  1  0.25746000  0.38185000  0.83645000  1.0
  H  H446  1  0.50492000  0.34805000  0.73497000  1.0
  H  H447  1  0.17646000  0.47285000  0.84645000  1.0
  H  H448  1  0.28623000  0.49445000  0.87885000  1.0
  H  H449  1  0.20775000  0.45502000  0.88028000  1.0
  H  H450  1  0.75434000  0.23714000  0.49521000  1.0
  H  H451  1  0.75044000  0.36477000  0.60710000  1.0
  H  H452  1  0.43416000  0.30826000  0.53877000  1.0
  H  H453  1  0.92877000  0.32575000  0.56417000  1.0
  H  H454  1  0.92372000  0.27077000  0.53311000  1.0
  H  H455  1  0.89501000  0.29783000  0.58639000  1.0
  H  H456  1  0.02761000  0.42454000  0.24167000  1.0
  H  H457  1  0.02207000  0.49222000  0.38009000  1.0
  H  H458  1  0.29234000  0.51734000  0.31342000  1.0
  H  H459  1  0.87617000  0.41573000  0.28375000  1.0
  H  H460  1  0.85266000  0.46335000  0.29731000  1.0
  H  H461  1  0.86152000  0.45334000  0.33822000  1.0
  H  H462  1  0.33973000  0.72348000  0.51690000  1.0
  H  H463  1  0.35711000  0.79946000  0.45400000  1.0
  H  H464  1  0.08363000  0.70627000  0.42196000  1.0
  H  H465  1  0.52590000  0.75874000  0.49933000  1.0
  H  H466  1  0.45749000  0.79141000  0.54262000  1.0
  H  H467  1  0.49232000  0.80765000  0.50647000  1.0
  H  H468  1  0.98415000  0.68639000  0.20338000  1.0
  H  H469  1  0.08681000  0.55384000  0.13361000  1.0
  H  H470  1  0.26042000  0.64160000  0.25189000  1.0
  H  H471  1  0.97620000  0.58806000  0.10013000  1.0
  H  H472  1  0.91922000  0.63851000  0.13134000  1.0
  H  H473  1  0.88059000  0.59665000  0.13688000  1.0
  H  H474  1  0.48716000  0.93253000  0.10053000  1.0
  H  H475  1  0.15436000  0.87729000  0.09288000  1.0
  H  H476  1  0.44442000  0.83887000  0.14285000  1.0
  H  H477  1  0.22103000  0.91391000  0.05101000  1.0
  H  H478  1  0.32815000  0.95129000  0.07371000  1.0
  H  H479  1  0.20434000  0.95231000  0.09925000  1.0
  H  H480  1  0.25216000  0.17428000  0.16577000  1.0
  H  H481  1  0.60851000  0.15084000  0.12760000  1.0
  H  H482  1  0.38469000  0.20892000  0.07395000  1.0
  H  H483  1  0.47043000  0.10787000  0.15433000  1.0
  H  H484  1  0.37888000  0.14206000  0.19286000  1.0
  H  H485  1  0.52300000  0.15153000  0.19271000  1.0
  H  H486  1  0.52847000  0.73725000  0.72090000  1.0
  H  H487  1  0.16731000  0.74784000  0.70114000  1.0
  H  H488  1  0.36954000  0.86332000  0.77838000  1.0
  H  H489  1  0.28194000  0.68217000  0.70164000  1.0
  H  H490  1  0.41440000  0.67626000  0.67998000  1.0
  H  H491  1  0.29272000  0.68267000  0.65709000  1.0
  H  H492  1  0.81547000  0.22120000  0.85326000  1.0
  H  H493  1  0.17887000  0.24739000  0.87397000  1.0
  H  H494  1  0.05473000  0.15239000  0.74799000  1.0
  H  H495  1  0.91930000  0.26460000  0.92647000  1.0
  H  H496  1  0.91419000  0.29632000  0.90735000  1.0
  H  H497  1  0.04190000  0.29117000  0.92671000  1.0
  H  H498  1  0.30746000  0.53721000  0.80063000  1.0
  H  H499  1  0.97249000  0.54320000  0.85304000  1.0
  H  H500  1  0.01381000  0.49275000  0.71559000  1.0
  H  H501  1  0.18310000  0.59650000  0.88457000  1.0
  H  H502  1  0.27897000  0.55883000  0.87448000  1.0
  H  H503  1  0.14580000  0.55855000  0.89515000  1.0
  H  H504  1  0.80380000  0.08119000  0.39016000  1.0
  H  H505  1  0.15318000  0.06981000  0.42456000  1.0
  H  H506  1  0.06155000  0.17374000  0.40158000  1.0
  H  H507  1  0.99042000  0.00756000  0.38573000  1.0
  H  H508  1  0.85813000  0.02729000  0.40585000  1.0
  H  H509  1  0.97711000  0.03537000  0.43693000  1.0
  H  H510  1  0.87676000  0.55151000  0.40054000  1.0
  H  H511  1  0.53802000  0.49780000  0.38786000  1.0
  H  H512  1  0.74204000  0.53144000  0.50218000  1.0
  H  H513  1  0.76077000  0.53256000  0.33825000  1.0
  H  H514  1  0.83117000  0.74967000  0.35066000  1.0
  H  H515  1  0.49110000  0.79100000  0.40259000  1.0
  H  H516  1  0.75288000  0.88617000  0.42375000  1.0
  H  H517  1  0.57398000  0.71839000  0.37994000  1.0
  H  H518  1  0.69100000  0.70054000  0.34660000  1.0
  H  H519  1  0.56528000  0.71432000  0.33325000  1.0
  H  H520  1  0.90318000  0.52811000  0.19720000  1.0
  H  H521  1  0.56250000  0.53563000  0.15419000  1.0
  H  H522  1  0.81915000  0.45266000  0.06125000  1.0
  H  H523  1  0.65490000  0.59047000  0.22580000  1.0
  H  H524  1  0.76038000  0.57196000  0.24559000  1.0
  H  H525  1  0.62729000  0.54988000  0.23126000  1.0
  H  H526  1  0.43061000  0.77802000  0.83710000  1.0
  H  H527  1  0.76628000  0.38559000  0.82994000  1.0
  H  H528  1  0.09426000  0.31642000  0.83940000  1.0
  H  H529  1  0.69691000  0.39522000  0.35453000  1.0
  H  H530  1  0.45046000  0.70378000  0.21092000  1.0
  H  H531  1  0.12944000  0.97646000  0.96786000  1.0
  H  H532  1  0.61978000  0.50901000  0.33196000  1.0
  N  N533  1  0.84219000  0.59284000  0.97932000  1.0
  N  N534  1  0.70052000  0.29889000  0.31385000  1.0
  N  N535  1  0.41913000  0.89560000  0.67909000  1.0
  N  N536  1  0.59444000  0.29091000  0.99691000  1.0
  N  N537  1  0.42776000  0.74411000  0.81878000  1.0
  N  N538  1  0.48810000  0.91281000  0.26090000  1.0
  N  N539  1  0.72862000  0.11768000  0.61114000  1.0
  N  N540  1  0.75078000  0.40868000  0.82049000  1.0
  N  N541  1  0.41220000  0.25087000  0.26644000  1.0
  N  N542  1  0.18931000  0.60013000  0.67320000  1.0
  N  N543  1  0.18999000  0.96826000  0.31682000  1.0
  N  N544  1  0.10807000  0.33515000  0.87294000  1.0
  N  N545  1  0.76678000  0.40520000  0.37607000  1.0
  N  N546  1  0.02924000  0.99343000  0.65072000  1.0
  N  N547  1  0.44324000  0.67032000  0.18966000  1.0
  N  N548  1  0.82927000  0.92708000  0.33277000  1.0
  N  N549  1  0.14015000  0.26338000  0.97973000  1.0
  N  N550  1  0.85517000  0.59903000  0.62221000  1.0
  N  N551  1  0.18248000  0.81436000  0.94685000  1.0
  N  N552  1  0.09718000  0.96509000  0.98786000  1.0
  N  N553  1  0.55232000  0.97179000  0.81717000  1.0
  N  N554  1  0.66971000  0.30719000  0.66600000  1.0
  N  N555  1  0.24590000  0.46453000  0.85966000  1.0
  N  N556  1  0.88111000  0.29809000  0.55745000  1.0
  N  N557  1  0.90030000  0.44634000  0.30896000  1.0
  N  N558  1  0.45981000  0.78193000  0.50966000  1.0
  N  N559  1  0.95256000  0.61138000  0.13175000  1.0
  N  N560  1  0.27018000  0.93194000  0.07918000  1.0
  N  N561  1  0.44857000  0.14066000  0.17343000  1.0
  N  N562  1  0.33707000  0.69374000  0.68643000  1.0
  N  N563  1  0.97061000  0.27370000  0.90811000  1.0
  N  N564  1  0.19009000  0.56298000  0.87201000  1.0
  N  N565  1  0.94628000  0.03501000  0.40911000  1.0
  N  N566  1  0.69461000  0.52188000  0.35071000  1.0
  N  N567  1  0.62465000  0.72364000  0.35860000  1.0
  N  N568  1  0.69609000  0.56252000  0.22185000  1.0
  O  O569  1  0.64008000  0.93663000  0.14868000  1.0
  O  O570  1  0.09843000  0.78743000  0.18457000  1.0
  O  O571  1  0.97563000  0.73891000  0.07184000  1.0
  O  O572  1  0.83745000  0.78749000  0.07526000  1.0
  O  O573  1  0.93847000  0.80410000  0.16394000  1.0
  O  O574  1  0.74908000  0.96241000  0.09646000  1.0
  O  O575  1  0.05910000  0.71064000  0.12466000  1.0
  O  O576  1  0.10680000  0.81102000  0.10217000  1.0
  O  O577  1  0.24098000  0.79999000  0.13815000  1.0
  O  O578  1  0.20854000  0.72083000  0.09365000  1.0
  O  O579  1  0.75573000  0.87999000  0.05334000  1.0
  O  O580  1  0.88216000  0.93893000  0.17261000  1.0
  O  O581  1  0.89373000  0.87835000  0.17602000  1.0
  O  O582  1  0.91981000  0.87441000  0.08094000  1.0
  O  O583  1  0.91791000  0.96320000  0.12451000  1.0
  O  O584  1  0.69589000  0.87003000  0.12302000  1.0
  O  O585  1  0.58941000  0.12268000  0.03424000  1.0
  O  O586  1  0.08773000  0.32861000  0.15986000  1.0
  O  O587  1  0.95409000  0.24595000  0.18931000  1.0
  O  O588  1  0.83617000  0.20176000  0.13161000  1.0
  O  O589  1  0.94782000  0.28274000  0.12668000  1.0
  O  O590  1  0.68152000  0.05994000  0.97726000  1.0
  O  O591  1  0.94961000  0.31687000  0.22645000  1.0
  O  O592  1  0.09860000  0.21901000  0.12234000  1.0
  O  O593  1  0.22615000  0.26401000  0.16736000  1.0
  O  O594  1  0.13628000  0.31784000  0.23511000  1.0
  O  O595  1  0.76832000  0.09708000  0.06823000  1.0
  O  O596  1  0.79032000  0.14887000  0.99348000  1.0
  O  O597  1  0.90447000  0.20618000  0.03911000  1.0
  O  O598  1  0.92719000  0.11806000  0.05181000  1.0
  O  O599  1  0.85324000  0.07757000  0.96568000  1.0
  O  O600  1  0.69884000  0.18004000  0.06337000  1.0
  O  O601  1  0.56448000  0.83666000  0.82460000  1.0
  O  O602  1  0.05999000  0.75536000  0.62193000  1.0
  O  O603  1  0.90808000  0.86655000  0.69416000  1.0
  O  O604  1  0.78000000  0.84409000  0.72888000  1.0
  O  O605  1  0.90956000  0.76761000  0.66259000  1.0
  O  O606  1  0.71147000  0.83924000  0.89551000  1.0
  O  O607  1  0.94522000  0.84151000  0.63221000  1.0
  O  O608  1  0.05558000  0.82790000  0.72864000  1.0
  O  O609  1  0.19327000  0.83434000  0.69299000  1.0
  O  O610  1  0.13142000  0.82975000  0.62712000  1.0
  O  O611  1  0.78020000  0.89528000  0.87727000  1.0
  O  O612  1  0.84646000  0.77591000  0.80282000  1.0
  O  O613  1  0.85589000  0.75155000  0.73320000  1.0
  O  O614  1  0.86539000  0.86164000  0.81631000  1.0
  O  O615  1  0.84124000  0.79472000  0.85153000  1.0
  O  O616  1  0.67420000  0.80743000  0.76844000  1.0
  O  O617  1  0.22374000  0.22798000  0.76591000  1.0
  O  O618  1  0.72909000  0.11455000  0.84736000  1.0
  O  O619  1  0.60381000  0.08648000  0.73270000  1.0
  O  O620  1  0.48257000  0.14469000  0.75211000  1.0
  O  O621  1  0.58415000  0.14545000  0.83514000  1.0
  O  O622  1  0.33499000  0.28225000  0.74276000  1.0
  O  O623  1  0.58668000  0.04698000  0.76508000  1.0
  O  O624  1  0.72910000  0.15243000  0.77794000  1.0
  O  O625  1  0.86466000  0.11020000  0.77659000  1.0
  O  O626  1  0.77541000  0.03988000  0.76385000  1.0
  O  O627  1  0.41357000  0.19541000  0.70411000  1.0
  O  O628  1  0.50742000  0.27656000  0.81893000  1.0
  O  O629  1  0.54253000  0.23669000  0.84866000  1.0
  O  O630  1  0.57017000  0.22092000  0.74193000  1.0
  O  O631  1  0.43391000  0.30807000  0.80232000  1.0
  O  O632  1  0.34195000  0.20995000  0.80009000  1.0
  O  O633  1  0.24370000  0.44603000  0.68458000  1.0
  O  O634  1  0.75223000  0.62104000  0.77616000  1.0
  O  O635  1  0.66332000  0.56651000  0.84634000  1.0
  O  O636  1  0.51268000  0.52807000  0.80388000  1.0
  O  O637  1  0.57492000  0.60839000  0.78700000  1.0
  O  O638  1  0.40622000  0.38028000  0.61476000  1.0
  O  O639  1  0.64535000  0.64217000  0.88003000  1.0
  O  O640  1  0.76670000  0.53511000  0.77610000  1.0
  O  O641  1  0.88865000  0.58839000  0.81450000  1.0
  O  O642  1  0.82118000  0.65229000  0.86832000  1.0
  O  O643  1  0.39109000  0.39791000  0.69977000  1.0
  O  O644  1  0.45814000  0.47395000  0.65189000  1.0
  O  O645  1  0.56396000  0.52967000  0.70666000  1.0
  O  O646  1  0.53830000  0.44381000  0.72202000  1.0
  O  O647  1  0.57435000  0.41217000  0.64139000  1.0
  O  O648  1  0.36643000  0.49828000  0.72083000  1.0
  O  O649  1  0.23391000  0.16543000  0.47802000  1.0
  O  O650  1  0.73381000  0.06673000  0.27215000  1.0
  O  O651  1  0.60784000  0.18171000  0.33739000  1.0
  O  O652  1  0.46698000  0.17760000  0.38101000  1.0
  O  O653  1  0.58036000  0.08511000  0.31287000  1.0
  O  O654  1  0.36529000  0.20246000  0.54663000  1.0
  O  O655  1  0.62963000  0.13971000  0.26640000  1.0
  O  O656  1  0.72988000  0.14613000  0.37483000  1.0
  O  O657  1  0.87560000  0.13836000  0.33421000  1.0
  O  O658  1  0.81664000  0.13999000  0.27338000  1.0
  O  O659  1  0.41121000  0.22937000  0.48768000  1.0
  O  O660  1  0.43756000  0.10507000  0.45506000  1.0
  O  O661  1  0.52567000  0.08616000  0.39018000  1.0
  O  O662  1  0.56740000  0.19004000  0.46911000  1.0
  O  O663  1  0.50818000  0.15645000  0.52260000  1.0
  O  O664  1  0.33585000  0.13880000  0.41822000  1.0
  O  O665  1  0.93960000  0.60734000  0.48368000  1.0
  O  O666  1  0.41836000  0.44996000  0.51953000  1.0
  O  O667  1  0.25955000  0.41385000  0.41560000  1.0
  O  O668  1  0.15518000  0.47442000  0.42906000  1.0
  O  O669  1  0.26692000  0.47741000  0.50452000  1.0
  O  O670  1  0.20246000  0.66013000  0.49709000  1.0
  O  O671  1  0.38606000  0.37477000  0.45360000  1.0
  O  O672  1  0.42871000  0.48375000  0.44224000  1.0
  O  O673  1  0.55966000  0.46560000  0.47352000  1.0
  O  O674  1  0.48336000  0.38663000  0.40840000  1.0
  O  O675  1  0.10925000  0.57532000  0.39820000  1.0
  O  O676  1  0.22347000  0.61795000  0.51475000  1.0
  O  O677  1  0.23341000  0.56127000  0.52444000  1.0
  O  O678  1  0.23686000  0.55528000  0.42814000  1.0
  O  O679  1  0.07258000  0.64924000  0.44816000  1.0
  O  O680  1  0.03294000  0.55203000  0.47351000  1.0
  O  O681  1  0.94596000  0.79701000  0.33046000  1.0
  O  O682  1  0.41510000  0.97778000  0.47256000  1.0
  O  O683  1  0.29573000  0.91434000  0.52437000  1.0
  O  O684  1  0.15816000  0.87079000  0.47293000  1.0
  O  O685  1  0.25769000  0.94046000  0.45579000  1.0
  O  O686  1  0.02470000  0.71958000  0.29752000  1.0
  O  O687  1  0.35159000  0.98752000  0.55818000  1.0
  O  O688  1  0.41843000  0.87512000  0.44697000  1.0
  O  O689  1  0.56734000  0.91363000  0.47818000  1.0
  O  O690  1  0.52951000  0.97351000  0.53445000  1.0
  O  O691  1  0.07979000  0.74573000  0.37839000  1.0
  O  O692  1  0.20408000  0.80833000  0.32272000  1.0
  O  O693  1  0.21179000  0.87479000  0.37925000  1.0
  O  O694  1  0.23190000  0.78517000  0.38585000  1.0
  O  O695  1  0.19989000  0.73761000  0.28866000  1.0
  O  O696  1  0.01614000  0.83434000  0.39400000  1.0
  O  O697  1  0.00791000  0.45579000  0.15386000  1.0
  O  O698  1  0.48498000  0.41204000  0.98263000  1.0
  O  O699  1  0.36970000  0.53123000  0.03807000  1.0
  O  O700  1  0.23229000  0.52212000  0.07977000  1.0
  O  O701  1  0.31163000  0.43891000  0.00369000  1.0
  O  O702  1  0.09461000  0.49133000  0.22625000  1.0
  O  O703  1  0.42092000  0.46913000  0.94871000  1.0
  O  O704  1  0.49026000  0.50092000  0.07525000  1.0
  O  O705  1  0.62674000  0.46719000  0.02815000  1.0
  O  O706  1  0.57746000  0.50138000  0.98219000  1.0
  O  O707  1  0.15992000  0.54689000  0.21501000  1.0
  O  O708  1  0.27435000  0.42948000  0.13816000  1.0
  O  O709  1  0.29559000  0.42599000  0.07382000  1.0
  O  O710  1  0.28708000  0.52194000  0.16435000  1.0
  O  O711  1  0.26477000  0.45915000  0.20729000  1.0
  O  O712  1  0.08889000  0.47716000  0.11462000  1.0
