# generated using pymatgen
data_Cd2H79C64N9O13
_symmetry_space_group_name_H-M   'P 1'
_cell_length_a   11.42683333
_cell_length_b   30.43848281
_cell_length_c   30.71000000
_cell_angle_alpha   92.65799887
_cell_angle_beta   90.17100000
_cell_angle_gamma   100.34565570
_symmetry_Int_Tables_number   1
_chemical_formula_structural   Cd2H79C64N9O13
_chemical_formula_sum   'Cd4 H158 C128 N18 O26'
_cell_volume   10495.75687931
_cell_formula_units_Z   2
loop_
 _symmetry_equiv_pos_site_id
 _symmetry_equiv_pos_as_xyz
  1  'x, y, z'
loop_
 _atom_site_type_symbol
 _atom_site_label
 _atom_site_symmetry_multiplicity
 _atom_site_fract_x
 _atom_site_fract_y
 _atom_site_fract_z
 _atom_site_occupancy
  C  C0  1  0.59465333  0.51928333  0.21309000  1.0
  C  C1  1  0.14178000  0.59909000  0.21741000  1.0
  C  C2  1  0.42625000  0.56188000  0.17821000  1.0
  C  C3  1  0.50579000  0.53199000  0.23871000  1.0
  C  C4  1  0.21467000  0.47774000  0.26645000  1.0
  C  C5  1  0.19457000  0.43549000  0.28388333  1.0
  C  C6  1  0.22816000  0.43036000  0.32726000  1.0
  C  C7  1  0.28514000  0.46877000  0.35150000  1.0
  C  C8  1  0.30383000  0.51036000  0.33272000  1.0
  C  C9  1  0.37677000  0.63448000  0.32142000  1.0
  C  C10  1  0.60622000  0.53018000  0.16890000  1.0
  C  C11  1  0.51371000  0.54977000  0.14949000  1.0
  C  C12  1  0.76760667  0.15818667  0.62359000  1.0
  C  C13  1  0.28520000  0.19964000  0.54469000  1.0
  C  C14  1  0.92579000  0.14077000  0.56033000  1.0
  C  C15  1  0.87782000  0.18572000  0.61994000  1.0
  C  C16  1  0.97774000  0.24507000  0.50750333  1.0
  C  C17  1  0.94167333  0.27252333  0.47671000  1.0
  C  C18  1  0.98477000  0.31898000  0.47959000  1.0
  C  C19  1  0.05760000  0.33654000  0.51542000  1.0
  C  C20  1  0.09216667  0.30796667  0.54521000  1.0
  C  C21  1  0.17262000  0.25038000  0.66131000  1.0
  C  C22  1  0.73031000  0.12264000  0.59279000  1.0
  C  C23  1  0.81849000  0.10992000  0.56448000  1.0
  C  C24  1  0.58437333  0.47979333  0.89478000  1.0
  C  C25  1  0.07902000  0.43443000  0.89079000  1.0
  C  C26  1  0.36001667  0.47826667  0.92833000  1.0
  C  C27  1  0.49467000  0.49284000  0.87044000  1.0
  C  C28  1  0.17803000  0.56596000  0.85050333  1.0
  C  C29  1  0.16762333  0.60787333  0.83606667  1.0
  C  C30  1  0.22822667  0.62410667  0.79869667  1.0
  C  C31  1  0.30570667  0.59839667  0.77860333  1.0
  C  C32  1  0.31139000  0.55604000  0.79357000  1.0
  C  C33  1  0.27651000  0.43388000  0.77241000  1.0
  C  C34  1  0.55815000  0.46098000  0.93553000  1.0
  C  C35  1  0.44762000  0.46572000  0.95521000  1.0
  C  C36  1  0.65343000  0.70591000  0.49328667  1.0
  C  C37  1  0.56787000  0.68954000  0.52401000  1.0
  C  C38  1  0.53931000  0.71800000  0.55766000  1.0
  C  C39  1  0.72270000  0.52309000  0.14766000  1.0
  C  C40  1  0.83477000  0.54678000  0.17457000  1.0
  C  C41  1  0.95336000  0.54605000  0.14964000  1.0
  C  C42  1  0.92663000  0.61193000  0.21854000  1.0
  C  C43  1  0.82809000  0.62270000  0.15121333  1.0
  C  C44  1  0.93961000  0.62075000  0.12305000  1.0
  C  C45  1  0.02188000  0.59437000  0.14683000  1.0
  C  C46  1  0.04619000  0.61654000  0.19334333  1.0
  C  C47  1  0.60033000  0.09875000  0.59224000  1.0
  C  C48  1  0.50536000  0.12466000  0.57279333  1.0
  C  C49  1  0.50354000  0.17341000  0.59111000  1.0
  C  C50  1  0.38987000  0.13772000  0.50999667  1.0
  C  C51  1  0.60411333  0.15293333  0.50553000  1.0
  C  C52  1  0.61700667  0.20106667  0.52571667  1.0
  C  C53  1  0.50576000  0.20471000  0.55281000  1.0
  C  C54  1  0.39493000  0.18833000  0.52313000  1.0
  C  C55  1  0.63301000  0.42867000  0.95368000  1.0
  C  C56  1  0.75130000  0.42421000  0.93001000  1.0
  C  C57  1  0.85004000  0.46671000  0.93656000  1.0
  C  C58  1  0.90224000  0.37882000  0.91725000  1.0
  C  C59  1  0.83149000  0.38840000  0.99100000  1.0
  C  C60  1  0.92003667  0.43262667  0.00142000  1.0
  C  C61  1  0.96099000  0.45384000  0.95810000  1.0
  C  C62  1  0.00761000  0.41721000  0.92946000  1.0
  C  C63  1  0.41256000  0.45033000  0.00108000  1.0
  C  C64  1  0.44051667  0.48637667  0.03901000  1.0
  C  C65  1  0.57318000  0.50733000  0.04694000  1.0
  C  C66  1  0.36437000  0.54038000  0.08511000  1.0
  C  C67  1  0.41162000  0.55901000  0.01132000  1.0
  C  C68  1  0.54031000  0.58084000  0.02432000  1.0
  C  C69  1  0.58155000  0.55672000  0.06313000  1.0
  C  C70  1  0.49405000  0.56164000  0.10156000  1.0
  C  C71  1  0.80895000  0.06439000  0.54012000  1.0
  C  C72  1  0.79033000  0.02215000  0.56906000  1.0
  C  C73  1  0.94356000  0.05176000  0.62537000  1.0
  C  C74  1  0.94310000  0.35027000  0.44802000  1.0
  C  C75  1  0.02921000  0.36683000  0.41035000  1.0
  C  C76  1  0.15400000  0.39379000  0.42374000  1.0
  C  C77  1  0.08509000  0.35526000  0.33570333  1.0
  C  C78  1  0.12315000  0.30230000  0.38745333  1.0
  C  C79  1  0.24734000  0.32947000  0.40007333  1.0
  C  C80  1  0.24828000  0.37926000  0.39291000  1.0
  C  C81  1  0.21311333  0.38318333  0.34421000  1.0
  C  C82  1  0.31654667  0.41676667  0.72924000  1.0
  C  C83  1  0.25085667  0.36916667  0.71451000  1.0
  C  C84  1  0.32321667  0.34725667  0.67905000  1.0
  C  C85  1  0.15194000  0.29555000  0.73323000  1.0
  C  C86  1  0.33258000  0.32992000  0.77256667  1.0
  C  C87  1  0.41587667  0.31239667  0.73889000  1.0
  C  C88  1  0.34915667  0.30232667  0.69491333  1.0
  C  C89  1  0.23080000  0.27011000  0.70352000  1.0
  C  C90  1  0.49061667  0.76922667  0.73043000  1.0
  C  C91  1  0.41076000  0.72399000  0.73996000  1.0
  C  C92  1  0.41246000  0.71506000  0.78966000  1.0
  C  C93  1  0.21849667  0.67543667  0.73217000  1.0
  C  C94  1  0.22627000  0.75471000  0.74713000  1.0
  C  C95  1  0.23445333  0.75131333  0.79721333  1.0
  C  C96  1  0.28460333  0.70896333  0.80722333  1.0
  C  C97  1  0.20649000  0.66861000  0.78234667  1.0
  C  C98  1  0.68211000  0.67561000  0.45555000  1.0
  C  C99  1  0.59701000  0.67030000  0.41489000  1.0
  C  C100  1  0.46939000  0.64300000  0.42076000  1.0
  C  C101  1  0.54191000  0.69983000  0.34803000  1.0
  C  C102  1  0.51516000  0.74080000  0.41500000  1.0
  C  C103  1  0.39020000  0.71360000  0.42375000  1.0
  C  C104  1  0.37816000  0.66750000  0.39969333  1.0
  C  C105  1  0.40954000  0.67569000  0.35112000  1.0
  C  C106  1  0.68400000  0.77760000  0.53387000  1.0
  C  C107  1  0.71580000  0.75015000  0.49980000  1.0
  C  C108  1  0.02641000  0.02492000  0.60013000  1.0
  C  C109  1  0.48740000  0.78029000  0.68333000  1.0
  C  C110  1  0.88629000  0.83697000  0.65137667  1.0
  C  C111  1  0.37252000  0.82825000  0.56629000  1.0
  C  C112  1  0.73813667  0.88658667  0.61257667  1.0
  C  C113  1  0.77120000  0.81818000  0.63958000  1.0
  C  C114  1  0.93510000  0.88047000  0.64003667  1.0
  C  C115  1  0.07117000  0.89303000  0.64563000  1.0
  C  C116  1  0.14589000  0.87329000  0.60967333  1.0
  C  C117  1  0.12331000  0.82166000  0.59988667  1.0
  C  C118  1  0.26542000  0.89215000  0.54634333  1.0
  C  C119  1  0.05146000  0.87804000  0.53813000  1.0
  C  C120  1  0.05519000  0.82880000  0.52412000  1.0
  C  C121  1  0.15156000  0.81288000  0.55129333  1.0
  C  C122  1  0.27378000  0.84148000  0.53997333  1.0
  C  C123  1  0.85440000  0.90831000  0.62545000  1.0
  C  C124  1  0.88721000  0.95955000  0.62760000  1.0
  C  C125  1  0.86171000  0.98554000  0.55152333  1.0
  C  C126  1  0.78883000  0.98829000  0.63873000  1.0
  C  C127  1  0.95364000  0.97860000  0.58650000  1.0
  Cd  Cd128  1  0.30020000  0.57712000  0.26296000  1.0
  Cd  Cd129  1  0.11637667  0.22147667  0.58534000  1.0
  Cd  Cd130  1  0.23643000  0.47243000  0.84239000  1.0
  Cd  Cd131  1  0.53145000  0.80399000  0.60811333  1.0
  H  H132  1  0.65801000  0.50270000  0.22897000  1.0
  H  H133  1  0.35818000  0.57857000  0.16587000  1.0
  H  H134  1  0.50341000  0.52564000  0.27303000  1.0
  H  H135  1  0.18916000  0.48142000  0.23306000  1.0
  H  H136  1  0.15448000  0.40685000  0.26334333  1.0
  H  H137  1  0.31739333  0.46735333  0.38432333  1.0
  H  H138  1  0.34888000  0.53951000  0.35133000  1.0
  H  H139  1  0.71203000  0.16530000  0.65042000  1.0
  H  H140  1  0.99141000  0.13410000  0.53687000  1.0
  H  H141  1  0.90396000  0.21380000  0.64288000  1.0
  H  H142  1  0.94780000  0.20940000  0.50406000  1.0
  H  H143  1  0.88296667  0.25733667  0.45033333  1.0
  H  H144  1  0.08722000  0.37218000  0.52068333  1.0
  H  H145  1  0.15256000  0.32193000  0.57141000  1.0
  H  H146  1  0.66916000  0.48058000  0.87930000  1.0
  H  H147  1  0.27074000  0.47741000  0.94012000  1.0
  H  H148  1  0.51148667  0.50174667  0.83709000  1.0
  H  H149  1  0.12892000  0.55372000  0.87872667  1.0
  H  H150  1  0.11030333  0.62718333  0.85351000  1.0
  H  H151  1  0.36039000  0.61008000  0.75142000  1.0
  H  H152  1  0.36605000  0.53529000  0.77676667  1.0
  H  H153  1  0.52260667  0.65515667  0.52204333  1.0
  H  H154  1  0.46909000  0.70570000  0.57983000  1.0
  H  H155  1  0.72930000  0.46401000  0.16981000  1.0
  H  H156  1  0.73265000  0.53700000  0.11590000  1.0
  H  H157  1  0.84002000  0.52748000  0.20419000  1.0
  H  H158  1  0.93700000  0.53047000  0.11618000  1.0
  H  H159  1  0.00876000  0.52570000  0.16691000  1.0
  H  H160  1  0.91530333  0.64530333  0.23237000  1.0
  H  H161  1  0.92518000  0.59053000  0.24701000  1.0
  H  H162  1  0.74576000  0.61327000  0.13141000  1.0
  H  H163  1  0.82886000  0.65781000  0.16319000  1.0
  H  H164  1  0.98753000  0.65517000  0.11758667  1.0
  H  H165  1  0.91260000  0.60430000  0.09056667  1.0
  H  H166  1  0.10591000  0.59486000  0.12853000  1.0
  H  H167  1  0.08044000  0.65277000  0.18946000  1.0
  H  H168  1  0.54602000  0.11050000  0.65154333  1.0
  H  H169  1  0.59155000  0.06768000  0.57156000  1.0
  H  H170  1  0.41971000  0.10452000  0.58342000  1.0
  H  H171  1  0.57717000  0.18732000  0.61341000  1.0
  H  H172  1  0.42160000  0.17394000  0.61043000  1.0
  H  H173  1  0.37917000  0.13261000  0.47403000  1.0
  H  H174  1  0.31119000  0.11610000  0.52378000  1.0
  H  H175  1  0.68705667  0.14012667  0.50978000  1.0
  H  H176  1  0.59221000  0.15355000  0.46960000  1.0
  H  H177  1  0.62676667  0.22544667  0.49952000  1.0
  H  H178  1  0.69823000  0.20917000  0.54670000  1.0
  H  H179  1  0.50993000  0.23991000  0.56518000  1.0
  H  H180  1  0.40706333  0.20777333  0.49314000  1.0
  H  H181  1  0.53872333  0.37568333  0.92411000  1.0
  H  H182  1  0.65570000  0.44002000  0.98790000  1.0
  H  H183  1  0.72959333  0.41859333  0.89462000  1.0
  H  H184  1  0.81861333  0.49314333  0.95725000  1.0
  H  H185  1  0.87379000  0.48122000  0.90460000  1.0
  H  H186  1  0.92788667  0.34600667  0.92310000  1.0
  H  H187  1  0.87926000  0.37802000  0.88191000  1.0
  H  H188  1  0.75183000  0.38652000  0.01187000  1.0
  H  H189  1  0.87342000  0.35961000  0.99950000  1.0
  H  H190  1  0.99792667  0.42583667  0.02005000  1.0
  H  H191  1  0.87660000  0.45597000  0.02200000  1.0
  H  H192  1  0.03151667  0.48378667  0.96440000  1.0
  H  H193  1  0.07018333  0.40252333  0.94987000  1.0
  H  H194  1  0.28044000  0.40183000  0.98718000  1.0
  H  H195  1  0.46240000  0.42394000  0.01009000  1.0
  H  H196  1  0.41606000  0.46583000  0.06801000  1.0
  H  H197  1  0.62529000  0.50631000  0.01665000  1.0
  H  H198  1  0.61232000  0.48782000  0.07076000  1.0
  H  H199  1  0.30600000  0.56601000  0.08713000  1.0
  H  H200  1  0.32173667  0.51354667  0.10643000  1.0
  H  H201  1  0.40838000  0.54789000  0.97675000  1.0
  H  H202  1  0.35343000  0.58464000  0.01377000  1.0
  H  H203  1  0.54484000  0.61696000  0.03319000  1.0
  H  H204  1  0.60028000  0.57875000  0.99611000  1.0
  H  H205  1  0.67357000  0.57387000  0.07003000  1.0
  H  H206  1  0.49453000  0.59832000  0.10492000  1.0
  H  H207  1  0.73328667  0.03660667  0.48644333  1.0
  H  H208  1  0.89430000  0.06507000  0.52241000  1.0
  H  H209  1  0.96466000  0.08721000  0.61795000  1.0
  H  H210  1  0.96316000  0.05182000  0.66091000  1.0
  H  H211  1  0.78880000  0.35497000  0.42341667  1.0
  H  H212  1  0.93248000  0.38096000  0.46795333  1.0
  H  H213  1  0.98264000  0.39195000  0.39568000  1.0
  H  H214  1  0.17862000  0.38854000  0.45763333  1.0
  H  H215  1  0.15408000  0.43015000  0.42197000  1.0
  H  H216  1  0.08721000  0.33032000  0.30822000  1.0
  H  H217  1  0.02171000  0.37662000  0.32518000  1.0
  H  H218  1  0.08812000  0.28097000  0.41409000  1.0
  H  H219  1  0.13203333  0.27853333  0.35954000  1.0
  H  H220  1  0.31680000  0.31737000  0.37992333  1.0
  H  H221  1  0.26808000  0.32471000  0.43476000  1.0
  H  H222  1  0.33858000  0.39836000  0.40090000  1.0
  H  H223  1  0.27466000  0.36643000  0.32400333  1.0
  H  H224  1  0.36821667  0.47208667  0.70011000  1.0
  H  H225  1  0.41326667  0.41556667  0.73287000  1.0
  H  H226  1  0.16522000  0.37364000  0.69935000  1.0
  H  H227  1  0.40904000  0.36918000  0.67179000  1.0
  H  H228  1  0.27280667  0.34205667  0.64779333  1.0
  H  H229  1  0.11730000  0.27444000  0.76057000  1.0
  H  H230  1  0.07222000  0.30175000  0.71522667  1.0
  H  H231  1  0.38079000  0.36038000  0.79016000  1.0
  H  H232  1  0.30839000  0.30489000  0.79781333  1.0
  H  H233  1  0.44351667  0.28162667  0.75033667  1.0
  H  H234  1  0.49790000  0.33778000  0.73515000  1.0
  H  H235  1  0.40481667  0.28710667  0.67095333  1.0
  H  H236  1  0.25230667  0.24162667  0.72161333  1.0
  H  H237  1  0.45027000  0.69750000  0.72220000  1.0
  H  H238  1  0.46892667  0.74292667  0.80885000  1.0
  H  H239  1  0.45094667  0.68466667  0.79487000  1.0
  H  H240  1  0.12820333  0.67148333  0.71727000  1.0
  H  H241  1  0.26068667  0.64998667  0.71447333  1.0
  H  H242  1  0.26518667  0.78889667  0.73749000  1.0
  H  H243  1  0.13109000  0.74951000  0.73684000  1.0
  H  H244  1  0.14494000  0.74970000  0.81178000  1.0
  H  H245  1  0.29315000  0.78152000  0.81188333  1.0
  H  H246  1  0.28436000  0.70460000  0.84297333  1.0
  H  H247  1  0.11242000  0.67051000  0.79050667  1.0
  H  H248  1  0.83083000  0.66338000  0.43114667  1.0
  H  H249  1  0.67500000  0.64150000  0.46845000  1.0
  H  H250  1  0.64028000  0.64853000  0.39217333  1.0
  H  H251  1  0.44736000  0.63817000  0.45543000  1.0
  H  H252  1  0.46209000  0.60901000  0.40487000  1.0
  H  H253  1  0.54659667  0.73021667  0.32889667  1.0
  H  H254  1  0.59761000  0.67875000  0.33002000  1.0
  H  H255  1  0.55561000  0.75713000  0.44536000  1.0
  H  H256  1  0.50546000  0.76917000  0.39450000  1.0
  H  H257  1  0.32042667  0.73158667  0.41212000  1.0
  H  H258  1  0.37762000  0.70976000  0.45937000  1.0
  H  H259  1  0.28622000  0.64854000  0.40314000  1.0
  H  H260  1  0.35255000  0.69902000  0.33968000  1.0
  H  H261  1  0.78399000  0.76421000  0.47748000  1.0
  H  H262  1  0.10333000  0.02146000  0.62111333  1.0
  H  H263  1  0.06226333  0.04281333  0.57089000  1.0
  H  H264  1  0.46212000  0.79666000  0.75079333  1.0
  H  H265  1  0.93936000  0.81638000  0.66763000  1.0
  H  H266  1  0.73709000  0.78383000  0.64660667  1.0
  H  H267  1  0.72692000  0.81223000  0.53708000  1.0
  H  H268  1  0.09290000  0.87808000  0.67658000  1.0
  H  H269  1  0.23662333  0.88057333  0.62500333  1.0
  H  H270  1  0.03082000  0.80521000  0.60491667  1.0
  H  H271  1  0.17977000  0.80568000  0.62152333  1.0
  H  H272  1  0.96523667  0.87974667  0.55374000  1.0
  H  H273  1  0.07546000  0.82591000  0.48881000  1.0
  H  H274  1  0.96706000  0.80750000  0.52934000  1.0
  H  H275  1  0.15004000  0.77667000  0.54388667  1.0
  H  H276  1  0.29272667  0.83424667  0.50515333  1.0
  H  H277  1  0.65193333  0.79804333  0.74637000  1.0
  H  H278  1  0.05469000  0.89832000  0.50883000  1.0
  H  H279  1  0.67605000  0.90477000  0.59840000  1.0
  H  H280  1  0.18603000  0.94426000  0.66815333  1.0
  H  H281  1  0.26964667  0.90741667  0.51403667  1.0
  H  H282  1  0.34166000  0.91169000  0.56548000  1.0
  H  H283  1  0.69783000  0.97081000  0.62977000  1.0
  H  H284  1  0.79961000  0.95348000  0.54428000  1.0
  H  H285  1  0.01415000  0.95710000  0.57315000  1.0
  H  H286  1  0.94706000  0.96803000  0.65627000  1.0
  H  H287  1  0.69423000  0.00705000  0.56565000  1.0
  H  H288  1  0.90827000  0.99428000  0.52056667  1.0
  H  H289  1  0.78636000  0.99513000  0.67458667  1.0
  N  N290  1  0.42509000  0.55371000  0.22130000  1.0
  N  N291  1  0.26823000  0.51417000  0.29097000  1.0
  N  N292  1  0.95227000  0.17771000  0.58754000  1.0
  N  N293  1  0.05175000  0.26304000  0.54106000  1.0
  N  N294  1  0.38242333  0.48755333  0.88604000  1.0
  N  N295  1  0.24554000  0.54016000  0.82820000  1.0
  N  N296  1  0.82510000  0.59357000  0.18891000  1.0
  N  N297  1  0.50105000  0.12285000  0.52407000  1.0
  N  N298  1  0.79683000  0.38397000  0.94393667  1.0
  N  N299  1  0.36478000  0.52160000  0.03959000  1.0
  N  N300  1  0.81592667  0.03179667  0.61673000  1.0
  N  N301  1  0.03907000  0.33194000  0.37537667  1.0
  N  N302  1  0.22231667  0.33867667  0.75119000  1.0
  N  N303  1  0.28578333  0.72085333  0.72404000  1.0
  N  N304  1  0.59294000  0.71263000  0.39245000  1.0
  N  N305  1  0.59632000  0.76130000  0.56180000  1.0
  N  N306  1  0.70156000  0.84217000  0.61883000  1.0
  N  N307  1  0.15225000  0.89728000  0.56816000  1.0
  O  O308  1  0.27264000  0.60868000  0.32250667  1.0
  O  O309  1  0.43783000  0.62637000  0.28709667  1.0
  O  O310  1  0.12246333  0.56520333  0.24251000  1.0
  O  O311  1  0.25205000  0.61938000  0.21784000  1.0
  O  O312  1  0.12578667  0.27308667  0.63329000  1.0
  O  O313  1  0.18256000  0.21064000  0.64615333  1.0
  O  O314  1  0.19850000  0.17036000  0.55948000  1.0
  O  O315  1  0.27288000  0.24101000  0.55272000  1.0
  O  O316  1  0.18079667  0.45134667  0.77817000  1.0
  O  O317  1  0.34588000  0.43865000  0.80651000  1.0
  O  O318  1  0.07422000  0.47241000  0.87364667  1.0
  O  O319  1  0.16992000  0.41726000  0.87776000  1.0
  O  O320  1  0.50498000  0.75251000  0.65140000  1.0
  O  O321  1  0.72385000  0.47706000  0.14096667  1.0
  O  O322  1  0.56802000  0.08480000  0.63434333  1.0
  O  O323  1  0.56160000  0.38586000  0.95473000  1.0
  O  O324  1  0.29053000  0.43188000  0.00234000  1.0
  O  O325  1  0.71771667  0.05971667  0.50855000  1.0
  O  O326  1  0.83174000  0.33034000  0.42996000  1.0
  O  O327  1  0.30066000  0.44649000  0.69698000  1.0
  O  O328  1  0.79965333  0.69029333  0.44196667  1.0
  O  O329  1  0.49071000  0.82113000  0.67151000  1.0
  O  O330  1  0.36777000  0.78748000  0.57849333  1.0
  O  O331  1  0.46994000  0.85560000  0.57861333  1.0
  O  O332  1  0.60861000  0.76679000  0.74159000  1.0
  O  O333  1  0.11245000  0.93926000  0.64989000  1.0
