# generated using pymatgen
data_Zn6H25C40N5O22
_symmetry_space_group_name_H-M   'P 1'
_cell_length_a   19.87088239
_cell_length_b   19.87080000
_cell_length_c   25.36740000
_cell_angle_alpha   79.39800000
_cell_angle_beta   79.39678661
_cell_angle_gamma   76.36830205
_symmetry_Int_Tables_number   1
_chemical_formula_structural   Zn6H25C40N5O22
_chemical_formula_sum   'Zn18 H75 C120 N15 O66'
_cell_volume   9463.72481985
_cell_formula_units_Z   3
loop_
 _symmetry_equiv_pos_site_id
 _symmetry_equiv_pos_as_xyz
  1  'x, y, z'
loop_
 _atom_site_type_symbol
 _atom_site_label
 _atom_site_symmetry_multiplicity
 _atom_site_fract_x
 _atom_site_fract_y
 _atom_site_fract_z
 _atom_site_occupancy
  C  C0  1  0.03066000  0.08684000  0.21264000  1.0
  C  C1  1  0.98682000  0.90832000  0.11549000  1.0
  C  C2  1  0.01194000  0.96250000  0.39081000  1.0
  C  C3  1  0.80802000  0.07464000  0.16455000  1.0
  C  C4  1  0.10246000  0.81448000  0.27361000  1.0
  C  C5  1  0.71718000  0.03092000  0.82658000  1.0
  C  C6  1  0.93076000  0.05632000  0.86623000  1.0
  C  C7  1  0.87886000  0.96596000  0.65293000  1.0
  C  C8  1  0.78042000  0.24038000  0.82438000  1.0
  C  C9  1  0.98918000  0.91606000  0.77536000  1.0
  C  C10  1  0.28404000  0.41968000  0.56054000  1.0
  C  C11  1  0.23552000  0.25824000  0.48646000  1.0
  C  C12  1  0.27652000  0.37776000  0.71565000  1.0
  C  C13  1  0.03978000  0.39396000  0.55440000  1.0
  C  C14  1  0.37274000  0.15500000  0.62497000  1.0
  C  C15  1  0.25314000  0.29848000  0.10474000  1.0
  C  C16  1  0.39292000  0.33960000  0.23769000  1.0
  C  C17  1  0.36988000  0.37636000  0.95373000  1.0
  C  C18  1  0.20810000  0.49242000  0.21762000  1.0
  C  C19  1  0.52320000  0.29096000  0.08370000  1.0
  C  C20  1  0.52360000  0.78756000  0.91675000  1.0
  C  C21  1  0.45612000  0.64488000  0.82111000  1.0
  C  C22  1  0.51900000  0.67208000  0.07075000  1.0
  C  C23  1  0.27526000  0.76360000  0.88830000  1.0
  C  C24  1  0.57620000  0.51046000  0.93255000  1.0
  C  C25  1  0.46632000  0.66802000  0.46383000  1.0
  C  C26  1  0.62882000  0.68200000  0.57009000  1.0
  C  C27  1  0.60124000  0.63666000  0.32113000  1.0
  C  C28  1  0.48304000  0.85263000  0.53896000  1.0
  C  C29  1  0.74906000  0.58274000  0.46059000  1.0
  C  C30  1  0.70060000  0.20176000  0.12177000  1.0
  C  C31  1  0.58008000  0.16476000  0.10389000  1.0
  C  C32  1  0.69210000  0.13232000  0.13750000  1.0
  C  C33  1  0.63240000  0.11402000  0.12693000  1.0
  C  C34  1  0.58590000  0.23526000  0.09218000  1.0
  C  C35  1  0.64798000  0.25274000  0.09925000  1.0
  C  C36  1  0.22956000  0.67420000  0.22654000  1.0
  C  C37  1  0.13614000  0.58596000  0.27126000  1.0
  C  C38  1  0.17186000  0.69668000  0.26468000  1.0
  C  C39  1  0.12510000  0.65216000  0.28698000  1.0
  C  C40  1  0.19348000  0.56372000  0.23234000  1.0
  C  C41  1  0.23986000  0.60878000  0.20995000  1.0
  C  C42  1  0.16946000  0.19646000  0.18412000  1.0
  C  C43  1  0.04624000  0.19424000  0.14675000  1.0
  C  C44  1  0.15276000  0.23858000  0.13544000  1.0
  C  C45  1  0.08940000  0.23920000  0.11848000  1.0
  C  C46  1  0.06642000  0.14636000  0.19216000  1.0
  C  C47  1  0.12666000  0.15046000  0.21225000  1.0
  C  C48  1  0.66124000  0.89918000  0.88368000  1.0
  C  C49  1  0.51892000  0.91356000  0.87844000  1.0
  C  C50  1  0.62232000  0.96410000  0.86268000  1.0
  C  C51  1  0.55100000  0.97062000  0.86061000  1.0
  C  C52  1  0.55748000  0.84846000  0.89942000  1.0
  C  C53  1  0.62910000  0.84178000  0.90169000  1.0
  C  C54  1  0.08514000  0.79670000  0.88454000  1.0
  C  C55  1  0.11598000  0.87762000  0.78451000  1.0
  C  C56  1  0.15384000  0.80678000  0.86700000  1.0
  C  C57  1  0.16872000  0.84724000  0.81632000  1.0
  C  C58  1  0.04656000  0.87012000  0.80309000  1.0
  C  C59  1  0.03202000  0.82776000  0.85290000  1.0
  C  C60  1  0.74526000  0.41724000  0.85815000  1.0
  C  C61  1  0.61158000  0.39332000  0.90160000  1.0
  C  C62  1  0.72622000  0.35688000  0.84976000  1.0
  C  C63  1  0.65884000  0.34538000  0.87178000  1.0
  C  C64  1  0.63006000  0.45460000  0.90911000  1.0
  C  C65  1  0.69784000  0.46554000  0.88781000  1.0
  C  C66  1  0.85014000  0.42834000  0.54659000  1.0
  C  C67  1  0.87534000  0.54452000  0.47165000  1.0
  C  C68  1  0.91712000  0.44426000  0.53701000  1.0
  C  C69  1  0.92904000  0.50280000  0.49892000  1.0
  C  C70  1  0.80764000  0.53010000  0.48245000  1.0
  C  C71  1  0.79594000  0.47056000  0.51945000  1.0
  C  C72  1  0.40410000  0.99584000  0.62496000  1.0
  C  C73  1  0.51526000  0.96622000  0.54140000  1.0
  C  C74  1  0.44782000  0.04362000  0.60479000  1.0
  C  C75  1  0.50410000  0.02790000  0.56360000  1.0
  C  C76  1  0.47066000  0.91894000  0.56073000  1.0
  C  C77  1  0.41530000  0.93408000  0.60303000  1.0
  C  C78  1  0.41422000  0.53772000  0.51673000  1.0
  C  C79  1  0.28174000  0.53208000  0.49675000  1.0
  C  C80  1  0.37858000  0.59230000  0.48191000  1.0
  C  C81  1  0.31262000  0.58831000  0.47165000  1.0
  C  C82  1  0.31648000  0.47864000  0.53268000  1.0
  C  C83  1  0.38364000  0.48129000  0.54152000  1.0
  C  C84  1  0.97566000  0.95270000  0.54411000  1.0
  C  C85  1  0.90206000  0.96344000  0.45787000  1.0
  C  C86  1  0.90344000  0.95358000  0.55480000  1.0
  C  C87  1  0.86726000  0.95888000  0.51114000  1.0
  C  C88  1  0.97430000  0.96210000  0.44703000  1.0
  C  C89  1  0.01058000  0.95738000  0.49073000  1.0
  C  C90  1  0.31374000  0.46432000  0.82525000  1.0
  C  C91  1  0.32782000  0.32946000  0.80120000  1.0
  C  C92  1  0.34612000  0.40648000  0.85916000  1.0
  C  C93  1  0.35364000  0.33892000  0.84634000  1.0
  C  C94  1  0.29546000  0.38741000  0.76711000  1.0
  C  C95  1  0.28840000  0.45498000  0.77977000  1.0
  C  C96  1  0.54712000  0.69320000  0.21071000  1.0
  C  C97  1  0.58392000  0.59144000  0.14157000  1.0
  C  C98  1  0.59312000  0.62958000  0.22537000  1.0
  C  C99  1  0.61058000  0.57888000  0.19054000  1.0
  C  C100  1  0.53988000  0.65586000  0.12574000  1.0
  C  C101  1  0.52070000  0.70612000  0.16135000  1.0
  C  C102  1  0.03872000  0.94006000  0.96867000  1.0
  C  C103  1  0.90894000  0.03276000  0.96729000  1.0
  C  C104  1  0.99112000  0.94460000  0.01672000  1.0
  C  C105  1  0.92654000  0.99236000  0.01586000  1.0
  C  C106  1  0.95540000  0.02596000  0.91866000  1.0
  C  C107  1  0.02144000  0.98094000  0.92011000  1.0
  C  C108  1  0.29264000  0.33314000  0.34300000  1.0
  C  C109  1  0.33040000  0.21128000  0.41540000  1.0
  C  C110  1  0.35676000  0.28676000  0.33098000  1.0
  C  C111  1  0.37436000  0.22490000  0.36678000  1.0
  C  C112  1  0.26884000  0.26036000  0.42940000  1.0
  C  C113  1  0.24880000  0.31982000  0.39160000  1.0
  C  C114  1  0.52714000  0.70352000  0.67581000  1.0
  C  C115  1  0.53958000  0.58134000  0.75161000  1.0
  C  C116  1  0.58052000  0.64520000  0.66503000  1.0
  C  C117  1  0.58524000  0.58370000  0.70265000  1.0
  C  C118  1  0.48972000  0.64140000  0.76441000  1.0
  C  C119  1  0.48230000  0.70176000  0.72528000  1.0
  H  H120  1  0.71408000  0.04998000  0.20277000  1.0
  H  H121  1  0.62484000  0.06080000  0.13917000  1.0
  H  H122  1  0.65394000  0.30668000  0.09076000  1.0
  H  H123  1  0.74528000  0.21780000  0.13058000  1.0
  H  H124  1  0.53276000  0.14960000  0.09937000  1.0
  H  H125  1  0.20398000  0.77918000  0.29081000  1.0
  H  H126  1  0.08068000  0.66840000  0.31704000  1.0
  H  H127  1  0.28516000  0.59288000  0.18048000  1.0
  H  H128  1  0.26616000  0.70788000  0.20918000  1.0
  H  H129  1  0.09992000  0.55220000  0.28959000  1.0
  H  H130  1  0.21504000  0.24530000  0.05852000  1.0
  H  H131  1  0.07632000  0.27048000  0.08059000  1.0
  H  H132  1  0.14358000  0.11468000  0.24731000  1.0
  H  H133  1  0.21892000  0.19400000  0.19736000  1.0
  H  H134  1  0.99992000  0.19334000  0.13027000  1.0
  H  H135  1  0.61612000  0.07308000  0.85737000  1.0
  H  H136  1  0.51990000  0.02062000  0.84550000  1.0
  H  H137  1  0.66032000  0.79236000  0.91774000  1.0
  H  H138  1  0.71562000  0.89316000  0.88797000  1.0
  H  H139  1  0.46380000  0.92070000  0.87589000  1.0
  H  H140  1  0.18660000  0.78020000  0.94523000  1.0
  H  H141  1  0.21992000  0.85932000  0.80234000  1.0
  H  H142  1  0.97900000  0.82168000  0.86887000  1.0
  H  H143  1  0.07220000  0.76678000  0.92385000  1.0
  H  H144  1  0.12908000  0.91062000  0.74672000  1.0
  H  H145  1  0.80418000  0.33314000  0.78158000  1.0
  H  H146  1  0.64136000  0.30096000  0.86405000  1.0
  H  H147  1  0.71350000  0.51258000  0.89234000  1.0
  H  H148  1  0.79660000  0.42738000  0.84084000  1.0
  H  H149  1  0.55946000  0.38376000  0.91662000  1.0
  H  H150  1  0.95124000  0.38426000  0.60995000  1.0
  H  H151  1  0.97858000  0.51906000  0.49207000  1.0
  H  H152  1  0.74432000  0.45840000  0.52929000  1.0
  H  H153  1  0.83940000  0.38412000  0.57639000  1.0
  H  H154  1  0.88634000  0.59030000  0.44380000  1.0
  H  H155  1  0.47862000  0.12724000  0.62954000  1.0
  H  H156  1  0.53844000  0.06432000  0.54797000  1.0
  H  H157  1  0.38064000  0.89816000  0.61941000  1.0
  H  H158  1  0.36144000  0.00628000  0.65771000  1.0
  H  H159  1  0.55884000  0.95554000  0.50933500  1.0
  H  H160  1  0.36110000  0.70240000  0.46162000  1.0
  H  H161  1  0.28380000  0.63052000  0.44571000  1.0
  H  H162  1  0.41190000  0.44084000  0.56907000  1.0
  H  H163  1  0.46376000  0.54010000  0.52745000  1.0
  H  H164  1  0.23032000  0.53114000  0.48864000  1.0
  H  H165  1  0.82672000  0.91456000  0.61540000  1.0
  H  H166  1  0.81188000  0.95848000  0.51857000  1.0
  H  H167  1  0.06642000  0.95544000  0.48388000  1.0
  H  H168  1  0.00588000  0.94562000  0.57685000  1.0
  H  H169  1  0.87246000  0.96674000  0.42529000  1.0
  H  H170  1  0.39362000  0.46290000  0.90102000  1.0
  H  H171  1  0.38140000  0.29338000  0.87008000  1.0
  H  H172  1  0.26458000  0.50082000  0.75394000  1.0
  H  H173  1  0.30844000  0.51682000  0.83401000  1.0
  H  H174  1  0.33568000  0.27680000  0.79198000  1.0
  H  H175  1  0.68148000  0.59078000  0.26688000  1.0
  H  H176  1  0.64656000  0.52990000  0.20084000  1.0
  H  H177  1  0.48720000  0.75646000  0.15030000  1.0
  H  H178  1  0.53440000  0.73420000  0.23590000  1.0
  H  H179  1  0.59998000  0.55150000  0.11527000  1.0
  H  H180  1  0.02876000  0.84268000  0.05789000  1.0
  H  H181  1  0.88778000  0.99528000  0.05191000  1.0
  H  H182  1  0.05808000  0.97382000  0.88325000  1.0
  H  H183  1  0.08826000  0.90276000  0.96854000  1.0
  H  H184  1  0.85742000  0.06658000  0.96741000  1.0
  H  H185  1  0.46008000  0.29722000  0.29422000  1.0
  H  H186  1  0.42394000  0.18900000  0.35821000  1.0
  H  H187  1  0.20196000  0.35890000  0.40131000  1.0
  H  H188  1  0.27896000  0.38236000  0.31694000  1.0
  H  H189  1  0.34770000  0.16528000  0.44381000  1.0
  H  H190  1  0.68802000  0.63492000  0.63102000  1.0
  H  H191  1  0.62678000  0.53872000  0.69519000  1.0
  H  H192  1  0.44466000  0.74896000  0.73419000  1.0
  H  H193  1  0.52376000  0.75214000  0.64796000  1.0
  H  H194  1  0.54728000  0.53430000  0.78113000  1.0
  N  N195  1  0.73742000  0.08280000  0.17120000  1.0
  N  N196  1  0.16136000  0.76480000  0.28037000  1.0
  N  N197  1  0.20654000  0.26324000  0.09598000  1.0
  N  N198  1  0.65076000  0.02628000  0.84947000  1.0
  N  N199  1  0.20502000  0.78258000  0.90367000  1.0
  N  N200  1  0.77352000  0.31090000  0.81532000  1.0
  N  N201  1  0.96924000  0.40534000  0.57038000  1.0
  N  N202  1  0.43512000  0.10900000  0.62481000  1.0
  N  N203  1  0.40104000  0.65752000  0.46505500  1.0
  N  N204  1  0.86712000  0.94202000  0.60930000  1.0
  N  N205  1  0.37378000  0.41766000  0.90475000  1.0
  N  N206  1  0.62948000  0.61848000  0.27143000  1.0
  N  N207  1  0.00494000  0.89412000  0.06390000  1.0
  N  N208  1  0.40828000  0.30664000  0.28698000  1.0
  N  N209  1  0.63712000  0.65188000  0.62153000  1.0
  O  O210  1  0.96718000  0.97380000  0.12470000  1.0
  O  O211  1  0.99082000  0.85550000  0.15542000  1.0
  O  O212  1  0.97848000  0.96210000  0.35070000  1.0
  O  O213  1  0.07976000  0.95958000  0.38084000  1.0
  O  O214  1  0.05570000  0.03654000  0.25041000  1.0
  O  O215  1  0.84316000  0.03084000  0.20034000  1.0
  O  O216  1  0.84198000  0.10630000  0.12129500  1.0
  O  O217  1  0.97952000  0.08180000  0.18778000  1.0
  O  O218  1  0.05138000  0.79868000  0.25485000  1.0
  O  O219  1  0.09924000  0.87832000  0.28349000  1.0
  O  O220  1  0.96634000  0.94084000  0.24220000  1.0
  O  O221  1  0.86306000  0.07454000  0.86499000  1.0
  O  O222  1  0.97592000  0.05536000  0.82116000  1.0
  O  O223  1  0.84314000  0.94910000  0.70073000  1.0
  O  O224  1  0.92282000  0.00766000  0.64781000  1.0
  O  O225  1  0.76306000  0.97626000  0.80978000  1.0
  O  O226  1  0.81818000  0.20230000  0.78798000  1.0
  O  O227  1  0.75060000  0.20894000  0.86986000  1.0
  O  O228  1  0.73386000  0.09228000  0.82050000  1.0
  O  O229  1  0.00454000  0.96866000  0.73884000  1.0
  O  O230  1  0.92310000  0.91590000  0.79609000  1.0
  O  O231  1  0.86840000  0.06220000  0.75237000  1.0
  O  O232  1  0.19912000  0.31720000  0.50226000  1.0
  O  O233  1  0.25422000  0.20244000  0.52159000  1.0
  O  O234  1  0.28490000  0.31410000  0.70407000  1.0
  O  O235  1  0.26296000  0.43190000  0.67797000  1.0
  O  O236  1  0.32330000  0.36596000  0.58665000  1.0
  O  O237  1  0.08246000  0.36352000  0.58996000  1.0
  O  O238  1  0.06618000  0.41036000  0.50346000  1.0
  O  O239  1  0.21746000  0.42150000  0.55932000  1.0
  O  O240  1  0.31730000  0.13564000  0.61601000  1.0
  O  O241  1  0.37050000  0.21986000  0.63049000  1.0
  O  O242  1  0.22104000  0.27528000  0.61682000  1.0
  O  O243  1  0.33128000  0.34184000  0.22434000  1.0
  O  O244  1  0.44120000  0.36740000  0.20383000  1.0
  O  O245  1  0.39446000  0.39172000  0.99376000  1.0
  O  O246  1  0.33858000  0.32316000  0.96257000  1.0
  O  O247  1  0.31140000  0.29642000  0.06995000  1.0
  O  O248  1  0.25362000  0.47728000  0.17461000  1.0
  O  O249  1  0.18304000  0.44210000  0.25076000  1.0
  O  O250  1  0.23870000  0.33594000  0.14503000  1.0
  O  O251  1  0.52088000  0.35212000  0.09783000  1.0
  O  O252  1  0.46676000  0.27552000  0.07253000  1.0
  O  O253  1  0.36740000  0.39546000  0.11044000  1.0
  O  O254  1  0.44030000  0.70580000  0.83852000  1.0
  O  O255  1  0.45338000  0.58646000  0.85489000  1.0
  O  O256  1  0.54026000  0.62528000  0.03734000  1.0
  O  O257  1  0.48566000  0.73524000  0.05304000  1.0
  O  O258  1  0.56128000  0.72632000  0.93461000  1.0
  O  O259  1  0.31762000  0.75048000  0.92490000  1.0
  O  O260  1  0.30136000  0.75634000  0.83771000  1.0
  O  O261  1  0.45730000  0.79504000  0.91137000  1.0
  O  O262  1  0.51126000  0.50162000  0.94604000  1.0
  O  O263  1  0.59116000  0.57184000  0.93180000  1.0
  O  O264  1  0.44602000  0.64894000  0.95297000  1.0
  O  O265  1  0.56754000  0.69294000  0.55367000  1.0
  O  O266  1  0.68376000  0.69812000  0.53672000  1.0
  O  O267  1  0.64152000  0.62226000  0.35930000  1.0
  O  O268  1  0.53430000  0.66434000  0.33237000  1.0
  O  O269  1  0.52300000  0.61830000  0.45463000  1.0
  O  O270  1  0.53472000  0.83654000  0.49979000  1.0
  O  O271  1  0.44520000  0.80598000  0.56167000  1.0
  O  O272  1  0.47152000  0.73004000  0.47107000  1.0
  O  O273  1  0.76060000  0.64572000  0.44079000  1.0
  O  O274  1  0.68442000  0.57160000  0.46841000  1.0
  O  O275  1  0.61822000  0.72096000  0.43851000  1.0
  Zn  Zn276  1  0.02454000  0.95476000  0.28108000  1.0
  Zn  Zn277  1  0.93912000  0.00676000  0.19014000  1.0
  Zn  Zn278  1  0.97434000  0.85584000  0.22903000  1.0
  Zn  Zn279  1  0.84962000  0.97710000  0.76499000  1.0
  Zn  Zn280  1  0.82180000  0.10806000  0.80451000  1.0
  Zn  Zn281  1  0.95858000  0.05636000  0.75165000  1.0
  Zn  Zn282  1  0.29624000  0.29382000  0.63436000  1.0
  Zn  Zn283  1  0.17894000  0.34308000  0.56977000  1.0
  Zn  Zn284  1  0.23602000  0.19206000  0.59572000  1.0
  Zn  Zn285  1  0.38488000  0.34004000  0.06214000  1.0
  Zn  Zn286  1  0.29682000  0.38752000  0.16241000  1.0
  Zn  Zn287  1  0.44264000  0.40580000  0.13204000  1.0
  Zn  Zn288  1  0.53226000  0.64400000  0.96417000  1.0
  Zn  Zn289  1  0.41414000  0.72402000  0.90849000  1.0
  Zn  Zn290  1  0.43794000  0.57312000  0.92973000  1.0
  Zn  Zn291  1  0.61514000  0.63422000  0.43153000  1.0
  Zn  Zn292  1  0.54926000  0.74574000  0.48868000  1.0
  Zn  Zn293  1  0.69560000  0.72048000  0.46197000  1.0
