# generated using pymatgen
data_Zn4H75(C37O6)3
_symmetry_space_group_name_H-M   'P 1'
_cell_length_a   15.28805000
_cell_length_b   46.45770000
_cell_length_c   47.29993797
_cell_angle_alpha   68.70756963
_cell_angle_beta   88.46899537
_cell_angle_gamma   87.71800000
_symmetry_Int_Tables_number   1
_chemical_formula_structural   Zn4H75(C37O6)3
_chemical_formula_sum   'Zn8 H150 C222 O36'
_cell_volume   31273.93564777
_cell_formula_units_Z   2
loop_
 _symmetry_equiv_pos_site_id
 _symmetry_equiv_pos_as_xyz
  1  'x, y, z'
loop_
 _atom_site_type_symbol
 _atom_site_label
 _atom_site_symmetry_multiplicity
 _atom_site_fract_x
 _atom_site_fract_y
 _atom_site_fract_z
 _atom_site_occupancy
  C  C0  1  0.85491000  0.06033000  0.99561000  1.0
  C  C1  1  0.01135000  0.98302000  0.91789000  1.0
  C  C2  1  0.95716000  0.96179000  0.88176000  1.0
  C  C3  1  0.95593000  0.96366000  0.91057000  1.0
  C  C4  1  0.03837000  0.98696000  0.99345000  1.0
  C  C5  1  0.05421000  0.99491000  0.95923000  1.0
  C  C6  1  0.01262000  0.97996000  0.85854000  1.0
  C  C7  1  0.07475000  0.99713000  0.86663000  1.0
  C  C8  1  0.07395000  0.99874000  0.89585000  1.0
  C  C9  1  0.00364000  0.95405000  0.00726000  1.0
  C  C10  1  0.89584000  0.92683000  0.99198000  1.0
  C  C11  1  0.95247000  0.90112000  0.99671000  1.0
  C  C12  1  0.93242000  0.87843000  0.98608000  1.0
  C  C13  1  0.84812000  0.87617000  0.97622000  1.0
  C  C14  1  0.78862000  0.90102000  0.97258000  1.0
  C  C15  1  0.81330000  0.92633000  0.97978000  1.0
  C  C16  1  0.12589000  0.98884000  0.00977000  1.0
  C  C17  1  0.17608000  0.98097000  0.05966000  1.0
  C  C18  1  0.15404000  0.96541000  0.08994000  1.0
  C  C19  1  0.21193000  0.96203000  0.11323000  1.0
  C  C20  1  0.29394000  0.97583000  0.10768000  1.0
  C  C21  1  0.31999000  0.98968000  0.07689000  1.0
  C  C22  1  0.26163000  0.99233000  0.05307000  1.0
  C  C23  1  0.96790000  0.00994000  0.99760000  1.0
  C  C24  1  0.94541000  0.06281000  0.98789000  1.0
  C  C25  1  0.98254000  0.09144000  0.97936000  1.0
  C  C26  1  0.93261000  0.11734000  0.97731000  1.0
  C  C27  1  0.84245000  0.11558000  0.98273000  1.0
  C  C28  1  0.80387000  0.08680000  0.99295000  1.0
  C  C29  1  0.85311000  0.55980000  0.49481000  1.0
  C  C30  1  0.01130000  0.48293000  0.41786000  1.0
  C  C31  1  0.95732000  0.46140000  0.38196000  1.0
  C  C32  1  0.95629000  0.46336000  0.41073000  1.0
  C  C33  1  0.03856000  0.48546000  0.49372000  1.0
  C  C34  1  0.05468000  0.49394000  0.45948000  1.0
  C  C35  1  0.01169000  0.47988000  0.35849000  1.0
  C  C36  1  0.07342000  0.49733000  0.36642000  1.0
  C  C37  1  0.07307000  0.49891000  0.39565000  1.0
  C  C38  1  0.00511000  0.45211000  0.50707000  1.0
  C  C39  1  0.89424000  0.42506000  0.49306000  1.0
  C  C40  1  0.94437000  0.39723000  0.50111000  1.0
  C  C41  1  0.91750000  0.37304000  0.49316000  1.0
  C  C42  1  0.83831000  0.37502000  0.47835000  1.0
  C  C43  1  0.78523000  0.40171000  0.47205000  1.0
  C  C44  1  0.81328000  0.42640000  0.47934000  1.0
  C  C45  1  0.12570000  0.48780000  0.51004000  1.0
  C  C46  1  0.17560000  0.48049000  0.55986000  1.0
  C  C47  1  0.15362000  0.46525000  0.59020000  1.0
  C  C48  1  0.21154000  0.46211000  0.61340000  1.0
  C  C49  1  0.29363000  0.47582000  0.60769000  1.0
  C  C50  1  0.31955000  0.48951000  0.57687000  1.0
  C  C51  1  0.26107000  0.49196000  0.55313000  1.0
  C  C52  1  0.96699000  0.50831000  0.49799000  1.0
  C  C53  1  0.94465000  0.56127000  0.48891000  1.0
  C  C54  1  0.98461000  0.58908000  0.48285000  1.0
  C  C55  1  0.93664000  0.61527000  0.48112000  1.0
  C  C56  1  0.84534000  0.61506000  0.48344000  1.0
  C  C57  1  0.80374000  0.58682000  0.49192000  1.0
  C  C58  1  0.64808500  0.99141500  0.39259500  1.0
  C  C59  1  0.71047500  0.92374000  0.46679500  1.0
  C  C60  1  0.43902500  0.99962000  0.45782500  1.0
  C  C61  1  0.82741000  0.99596500  0.54436000  1.0
  C  C62  1  0.78012000  0.06990000  0.47152000  1.0
  C  C63  1  0.04039000  0.98750000  0.47902000  1.0
  C  C64  1  0.64670000  0.49073000  0.89260000  1.0
  C  C65  1  0.71209000  0.42321000  0.96693000  1.0
  C  C66  1  0.43879000  0.49701000  0.95975000  1.0
  C  C67  1  0.82603000  0.49608000  0.04376000  1.0
  C  C68  1  0.78150000  0.56931000  0.97060000  1.0
  C  C69  1  0.04160000  0.48831000  0.97744000  1.0
  C  C70  1  0.35171000  0.00483000  0.46803000  1.0
  C  C71  1  0.28416500  0.98962000  0.46404500  1.0
  C  C72  1  0.19584000  0.99659500  0.47308000  1.0
  C  C73  1  0.12779500  0.98155500  0.46917500  1.0
  C  C74  1  0.35340000  0.50048000  0.97200000  1.0
  C  C75  1  0.28343000  0.49111000  0.96223000  1.0
  C  C76  1  0.19719000  0.49405000  0.97503000  1.0
  C  C77  1  0.12715000  0.48466000  0.96529000  1.0
  C  C78  1  0.96324500  0.98804000  0.76432500  1.0
  C  C79  1  0.04937000  0.98889000  0.77453000  1.0
  C  C80  1  0.06626000  0.98654000  0.80460000  1.0
  C  C81  1  0.99818000  0.98291000  0.82602000  1.0
  C  C82  1  0.91306000  0.98256000  0.81594000  1.0
  C  C83  1  0.89609000  0.98488000  0.78625000  1.0
  C  C84  1  0.94264000  0.99014000  0.73176000  1.0
  C  C85  1  0.85634500  0.98879000  0.72234500  1.0
  C  C86  1  0.83684500  0.98974000  0.69300500  1.0
  C  C87  1  0.90198500  0.99211000  0.67063500  1.0
  C  C88  1  0.98835000  0.99447000  0.67977000  1.0
  C  C89  1  0.00790000  0.99346000  0.70924000  1.0
  C  C90  1  0.88030500  0.99203000  0.63863500  1.0
  C  C91  1  0.94608000  0.99427000  0.61652000  1.0
  C  C92  1  0.92767500  0.99425000  0.58740500  1.0
  C  C93  1  0.84219000  0.99210000  0.57783000  1.0
  C  C94  1  0.77560000  0.98955000  0.59978000  1.0
  C  C95  1  0.79415500  0.98947000  0.62927500  1.0
  C  C96  1  0.79865000  0.78932000  0.96527000  1.0
  C  C97  1  0.86654000  0.79328000  0.98270000  1.0
  C  C98  1  0.87724000  0.82043000  0.98690000  1.0
  C  C99  1  0.82498000  0.84672000  0.97246000  1.0
  C  C100  1  0.75326000  0.84330000  0.95598000  1.0
  C  C101  1  0.73973000  0.81478000  0.95269000  1.0
  C  C102  1  0.79090000  0.75839000  0.96202000  1.0
  C  C103  1  0.71872000  0.75014000  0.94904000  1.0
  C  C104  1  0.71299000  0.72006000  0.94875000  1.0
  C  C105  1  0.77878000  0.69718000  0.96172000  1.0
  C  C106  1  0.85167000  0.70649000  0.97307000  1.0
  C  C107  1  0.85803000  0.73586000  0.97279000  1.0
  C  C108  1  0.77407000  0.66403000  0.96395000  1.0
  C  C109  1  0.84166000  0.64255000  0.97818000  1.0
  C  C110  1  0.84015000  0.61227000  0.98071000  1.0
  C  C111  1  0.77232000  0.60147000  0.96876000  1.0
  C  C112  1  0.70219000  0.62163000  0.95541000  1.0
  C  C113  1  0.70325000  0.65273000  0.95285000  1.0
  C  C114  1  0.42845000  0.97836000  0.18869000  1.0
  C  C115  1  0.47735000  0.97789000  0.16285000  1.0
  C  C116  1  0.43606000  0.97758000  0.13628000  1.0
  C  C117  1  0.34413000  0.97763000  0.13443000  1.0
  C  C118  1  0.29656000  0.97947000  0.15946000  1.0
  C  C119  1  0.33671000  0.97952000  0.18555000  1.0
  C  C120  1  0.46937000  0.97845000  0.21831000  1.0
  C  C121  1  0.41647500  0.97659000  0.24374500  1.0
  C  C122  1  0.44962000  0.97852000  0.27032000  1.0
  C  C123  1  0.53925500  0.98212000  0.27429500  1.0
  C  C124  1  0.59399000  0.98221000  0.24953000  1.0
  C  C125  1  0.56006000  0.98047000  0.22236000  1.0
  C  C126  1  0.57224000  0.98568500  0.30378000  1.0
  C  C127  1  0.66140000  0.98868000  0.30989000  1.0
  C  C128  1  0.68834000  0.99184500  0.33747000  1.0
  C  C129  1  0.62736000  0.99239000  0.36035000  1.0
  C  C130  1  0.53930000  0.98973500  0.35377000  1.0
  C  C131  1  0.51293500  0.98648500  0.32689500  1.0
  C  C132  1  0.74719000  0.20575000  0.96963000  1.0
  C  C133  1  0.71378000  0.18064000  0.99412000  1.0
  C  C134  1  0.73618000  0.15028000  0.99720000  1.0
  C  C135  1  0.79190000  0.14469000  0.97586000  1.0
  C  C136  1  0.81322000  0.16906000  0.94938000  1.0
  C  C137  1  0.79208000  0.19905000  0.94638000  1.0
  C  C138  1  0.74130000  0.23820000  0.96896000  1.0
  C  C139  1  0.79154000  0.26144000  0.94818000  1.0
  C  C140  1  0.78912000  0.29124000  0.94804000  1.0
  C  C141  1  0.73884000  0.29928000  0.96940000  1.0
  C  C142  1  0.68834000  0.27603000  0.99016000  1.0
  C  C143  1  0.68943000  0.24631000  0.98989000  1.0
  C  C144  1  0.73985000  0.33120000  0.97025000  1.0
  C  C145  1  0.68906000  0.33897000  0.99182000  1.0
  C  C146  1  0.68656000  0.36853000  0.99208000  1.0
  C  C147  1  0.73451000  0.39144000  0.97101000  1.0
  C  C148  1  0.78796000  0.38439000  0.94998000  1.0
  C  C149  1  0.79064000  0.35463000  0.94954000  1.0
  C  C150  1  0.96147000  0.48780000  0.26423000  1.0
  C  C151  1  0.04676000  0.49099000  0.27376000  1.0
  C  C152  1  0.06392000  0.48855000  0.30386000  1.0
  C  C153  1  0.99695000  0.48266000  0.32597000  1.0
  C  C154  1  0.91251000  0.48005000  0.31651000  1.0
  C  C155  1  0.89541000  0.48230000  0.28685000  1.0
  C  C156  1  0.94060000  0.48995000  0.23164000  1.0
  C  C157  1  0.85529000  0.48614000  0.22295000  1.0
  C  C158  1  0.83570000  0.48718000  0.19356000  1.0
  C  C159  1  0.89983000  0.49212000  0.17039000  1.0
  C  C160  1  0.98498000  0.49689000  0.17884000  1.0
  C  C161  1  0.00462000  0.49579000  0.20836000  1.0
  C  C162  1  0.87836000  0.49222000  0.13826000  1.0
  C  C163  1  0.94325000  0.49695000  0.11539000  1.0
  C  C164  1  0.92514000  0.49711000  0.08618000  1.0
  C  C165  1  0.84081000  0.49267000  0.07719000  1.0
  C  C166  1  0.77509000  0.48772000  0.09987000  1.0
  C  C167  1  0.79342000  0.48740000  0.12950000  1.0
  C  C168  1  0.78503000  0.29153000  0.46335000  1.0
  C  C169  1  0.86302000  0.30761000  0.45302000  1.0
  C  C170  1  0.87681000  0.33553000  0.45617000  1.0
  C  C171  1  0.81390000  0.34883000  0.46980000  1.0
  C  C172  1  0.73308000  0.33487000  0.47790000  1.0
  C  C173  1  0.71887000  0.30653000  0.47487000  1.0
  C  C174  1  0.77509000  0.25948000  0.46265000  1.0
  C  C175  1  0.69821000  0.24258500  0.47229000  1.0
  C  C176  1  0.69210000  0.21266000  0.47190000  1.0
  C  C177  1  0.76262000  0.19818500  0.46190000  1.0
  C  C178  1  0.83876000  0.21526500  0.45253000  1.0
  C  C179  1  0.84479000  0.24467000  0.45293000  1.0
  C  C180  1  0.75969500  0.16564500  0.46187500  1.0
  C  C181  1  0.83207000  0.15270000  0.45113000  1.0
  C  C182  1  0.83491000  0.12235500  0.45315000  1.0
  C  C183  1  0.76573000  0.10311000  0.46571000  1.0
  C  C184  1  0.69038000  0.11556000  0.47500000  1.0
  C  C185  1  0.68728500  0.14649000  0.47308500  1.0
  C  C186  1  0.42768000  0.47842000  0.68866000  1.0
  C  C187  1  0.47684000  0.47703000  0.66322000  1.0
  C  C188  1  0.43576000  0.47678000  0.63660000  1.0
  C  C189  1  0.34381000  0.47780000  0.63433000  1.0
  C  C190  1  0.29612000  0.48058000  0.65894000  1.0
  C  C191  1  0.33602000  0.48061000  0.68506000  1.0
  C  C192  1  0.46832000  0.47844000  0.71832000  1.0
  C  C193  1  0.41497000  0.47755000  0.74337000  1.0
  C  C194  1  0.44804000  0.47945000  0.76994000  1.0
  C  C195  1  0.53797000  0.48206000  0.77429000  1.0
  C  C196  1  0.59305000  0.48114000  0.74997000  1.0
  C  C197  1  0.55921000  0.47942000  0.72279000  1.0
  C  C198  1  0.57095000  0.48564000  0.80373000  1.0
  C  C199  1  0.66039000  0.48762000  0.81023000  1.0
  C  C200  1  0.68736000  0.49072000  0.83780000  1.0
  C  C201  1  0.62613000  0.49217500  0.86027000  1.0
  C  C202  1  0.53790000  0.49062000  0.85330000  1.0
  C  C203  1  0.51142000  0.48748000  0.82640000  1.0
  C  C204  1  0.75505000  0.70678000  0.46707000  1.0
  C  C205  1  0.70797000  0.68231000  0.48795000  1.0
  C  C206  1  0.72972000  0.65162000  0.49172000  1.0
  C  C207  1  0.79808000  0.64525000  0.47448000  1.0
  C  C208  1  0.83256000  0.66957000  0.45024000  1.0
  C  C209  1  0.81290000  0.69971000  0.44692000  1.0
  C  C210  1  0.74909000  0.73896500  0.46697000  1.0
  C  C211  1  0.81494000  0.76000500  0.45310000  1.0
  C  C212  1  0.81086500  0.78982500  0.45298500  1.0
  C  C213  1  0.74288000  0.79980500  0.46798000  1.0
  C  C214  1  0.67716000  0.77859000  0.48202000  1.0
  C  C215  1  0.68024000  0.74893500  0.48150000  1.0
  C  C216  1  0.74118000  0.83156000  0.46940000  1.0
  C  C217  1  0.67455500  0.84063000  0.48571500  1.0
  C  C218  1  0.67004000  0.86990500  0.48658000  1.0
  C  C219  1  0.73097500  0.89160500  0.47103500  1.0
  C  C220  1  0.79991500  0.88314000  0.45547500  1.0
  C  C221  1  0.80521000  0.85343000  0.45470000  1.0
  H  H222  1  0.73448000  0.08495000  0.99784000  1.0
  H  H223  1  0.82237000  0.03865000  0.00295000  1.0
  H  H224  1  0.91079000  0.94714000  0.87729000  1.0
  H  H225  1  0.90687000  0.95141000  0.92665000  1.0
  H  H226  1  0.09821000  0.01360000  0.94869000  1.0
  H  H227  1  0.12019000  0.01102000  0.84991000  1.0
  H  H228  1  0.11788000  0.01412000  0.90026000  1.0
  H  H229  1  0.00344000  0.94595000  0.03238000  1.0
  H  H230  1  0.05313000  0.94037000  0.99985000  1.0
  H  H231  1  0.01322000  0.89743000  0.00852000  1.0
  H  H232  1  0.98489000  0.86215000  0.98671000  1.0
  H  H233  1  0.72350000  0.90110000  0.96438000  1.0
  H  H234  1  0.76770000  0.94565000  0.97598000  1.0
  H  H235  1  0.15826000  0.01068000  0.99656000  1.0
  H  H236  1  0.17081000  0.96923000  0.01051000  1.0
  H  H237  1  0.08899000  0.95679000  0.09571000  1.0
  H  H238  1  0.18973000  0.94949000  0.13603000  1.0
  H  H239  1  0.38344000  0.99971000  0.07112000  1.0
  H  H240  1  0.28199000  0.00451000  0.02991000  1.0
  H  H241  1  0.90919000  0.00959000  0.98439000  1.0
  H  H242  1  0.94920000  0.00321000  0.02196000  1.0
  H  H243  1  0.05119000  0.09377000  0.97355000  1.0
  H  H244  1  0.96455000  0.13916000  0.97043000  1.0
  H  H245  1  0.73355000  0.58584000  0.49501000  1.0
  H  H246  1  0.81864000  0.53863000  0.50050000  1.0
  H  H247  1  0.91167000  0.44635000  0.37783000  1.0
  H  H248  1  0.90784000  0.45094000  0.42698000  1.0
  H  H249  1  0.09952000  0.51245000  0.44924000  1.0
  H  H250  1  0.11834000  0.51142000  0.34964000  1.0
  H  H251  1  0.11668000  0.51444000  0.39998000  1.0
  H  H252  1  0.00618000  0.44364000  0.53220000  1.0
  H  H253  1  0.05251000  0.43809000  0.49903000  1.0
  H  H254  1  0.00409000  0.39341000  0.51361000  1.0
  H  H255  1  0.95880000  0.35241000  0.49892000  1.0
  H  H256  1  0.72345000  0.40384000  0.46085000  1.0
  H  H257  1  0.77241000  0.44713000  0.47365000  1.0
  H  H258  1  0.15715000  0.50985000  0.49683000  1.0
  H  H259  1  0.17150000  0.46844000  0.51076000  1.0
  H  H260  1  0.08860000  0.45666000  0.59606000  1.0
  H  H261  1  0.18937000  0.44985000  0.63627000  1.0
  H  H262  1  0.38297000  0.49956000  0.57103000  1.0
  H  H263  1  0.28134000  0.50403000  0.52994000  1.0
  H  H264  1  0.90756000  0.50739000  0.48540000  1.0
  H  H265  1  0.94961000  0.50196000  0.52241000  1.0
  H  H266  1  0.05402000  0.59071000  0.47830000  1.0
  H  H267  1  0.97140000  0.63632000  0.47622000  1.0
  H  H268  1  0.29364500  0.97275000  0.45319500  1.0
  H  H269  1  0.18677500  0.01357500  0.48380500  1.0
  H  H270  1  0.34233000  0.02255000  0.47769000  1.0
  H  H271  1  0.13670000  0.96369000  0.45966000  1.0
  H  H272  1  0.28982000  0.48155000  0.94444000  1.0
  H  H273  1  0.19095000  0.50365000  0.99279000  1.0
  H  H274  1  0.34839000  0.51041000  0.98943000  1.0
  H  H275  1  0.13217000  0.47497000  0.94769000  1.0
  H  H276  1  0.10518000  0.99124000  0.75968000  1.0
  H  H277  1  0.13303000  0.98708000  0.81119000  1.0
  H  H278  1  0.85793000  0.98089000  0.83109000  1.0
  H  H279  1  0.82856000  0.98414000  0.78122000  1.0
  H  H280  1  0.80137500  0.98690000  0.73738500  1.0
  H  H281  1  0.76904000  0.98855000  0.68840000  1.0
  H  H282  1  0.04307000  0.99716000  0.66445000  1.0
  H  H283  1  0.07542000  0.99535000  0.71394000  1.0
  H  H284  1  0.01347500  0.99633500  0.62110500  1.0
  H  H285  1  0.98235000  0.99646500  0.57201000  1.0
  H  H286  1  0.70846000  0.98817500  0.59419000  1.0
  H  H287  1  0.73941500  0.98763500  0.64449500  1.0
  H  H288  1  0.91336000  0.77568000  0.99458000  1.0
  H  H289  1  0.92797000  0.81980000  0.00239000  1.0
  H  H290  1  0.70763000  0.86231000  0.94565000  1.0
  H  H291  1  0.68343000  0.81307000  0.94029000  1.0
  H  H292  1  0.66606000  0.76649000  0.93922000  1.0
  H  H293  1  0.65640000  0.71515000  0.93848000  1.0
  H  H294  1  0.90717000  0.69186000  0.98269000  1.0
  H  H295  1  0.91855000  0.73962000  0.98149000  1.0
  H  H296  1  0.89835000  0.64773000  0.98791000  1.0
  H  H297  1  0.89393000  0.59715000  0.99225000  1.0
  H  H298  1  0.64806000  0.61363000  0.94642000  1.0
  H  H299  1  0.64869000  0.66753000  0.94199000  1.0
  H  H300  1  0.54775000  0.97766000  0.16283000  1.0
  H  H301  1  0.47636000  0.97690000  0.11744000  1.0
  H  H302  1  0.22613000  0.98131000  0.15905000  1.0
  H  H303  1  0.29235000  0.98093000  0.20289000  1.0
  H  H304  1  0.34740000  0.97341000  0.24411000  1.0
  H  H305  1  0.40149500  0.97696000  0.28761500  1.0
  H  H306  1  0.66371000  0.98368000  0.25073000  1.0
  H  H307  1  0.60589000  0.98082000  0.20457000  1.0
  H  H308  1  0.71139000  0.98823500  0.29358000  1.0
  H  H309  1  0.75717000  0.99308500  0.34100000  1.0
  H  H310  1  0.48833500  0.98956000  0.37000500  1.0
  H  H311  1  0.44395000  0.98440500  0.32517000  1.0
  H  H312  1  0.67458000  0.18371000  0.01204000  1.0
  H  H313  1  0.71539000  0.13157000  0.01727000  1.0
  H  H314  1  0.85372000  0.16511000  0.93202000  1.0
  H  H315  1  0.81596000  0.21645000  0.92612000  1.0
  H  H316  1  0.83572000  0.25737000  0.93196000  1.0
  H  H317  1  0.82877000  0.30729000  0.93097000  1.0
  H  H318  1  0.64706000  0.27977000  0.00722000  1.0
  H  H319  1  0.64922000  0.23008000  0.00664000  1.0
  H  H320  1  0.64797000  0.32315000  0.00841000  1.0
  H  H321  1  0.64334000  0.37392000  0.00800000  1.0
  H  H322  1  0.82310000  0.40220000  0.93260000  1.0
  H  H323  1  0.83099000  0.35113000  0.93209000  1.0
  H  H324  1  0.10177000  0.49527000  0.25835000  1.0
  H  H325  1  0.13014000  0.49093000  0.30984000  1.0
  H  H326  1  0.85775000  0.47671000  0.33207000  1.0
  H  H327  1  0.82853000  0.47965000  0.28239000  1.0
  H  H328  1  0.80116000  0.48220000  0.23862000  1.0
  H  H329  1  0.76868000  0.48399000  0.18956000  1.0
  H  H330  1  0.03870000  0.50163000  0.16292000  1.0
  H  H331  1  0.07118000  0.49966000  0.21250000  1.0
  H  H332  1  0.00973000  0.50081000  0.11949000  1.0
  H  H333  1  0.97910000  0.50128000  0.07024000  1.0
  H  H334  1  0.70883000  0.48438000  0.09483000  1.0
  H  H335  1  0.73944000  0.48346000  0.14534000  1.0
  H  H336  1  0.91656000  0.29914000  0.44292000  1.0
  H  H337  1  0.93877000  0.34634000  0.44873000  1.0
  H  H338  1  0.68235000  0.34508000  0.48787000  1.0
  H  H339  1  0.65648000  0.29647000  0.48244000  1.0
  H  H340  1  0.64183000  0.25190000  0.48044000  1.0
  H  H341  1  0.63150000  0.20126000  0.47970000  1.0
  H  H342  1  0.89705000  0.20666000  0.44493000  1.0
  H  H343  1  0.90689000  0.25484000  0.44567000  1.0
  H  H344  1  0.88967500  0.16496500  0.44136500  1.0
  H  H345  1  0.89373500  0.11369500  0.44545500  1.0
  H  H346  1  0.63533500  0.10124000  0.48477500  1.0
  H  H347  1  0.62852000  0.15468000  0.48109000  1.0
  H  H348  1  0.54723000  0.47598000  0.66357000  1.0
  H  H349  1  0.47615000  0.47532000  0.61807000  1.0
  H  H350  1  0.22577000  0.48309000  0.65815000  1.0
  H  H351  1  0.29159000  0.48277000  0.70207000  1.0
  H  H352  1  0.34557000  0.47518000  0.74343000  1.0
  H  H353  1  0.39959000  0.47867000  0.78693000  1.0
  H  H354  1  0.66291000  0.48179000  0.75151000  1.0
  H  H355  1  0.60528000  0.47896000  0.70534000  1.0
  H  H356  1  0.71053000  0.48640000  0.79425000  1.0
  H  H357  1  0.75631000  0.49108000  0.84171000  1.0
  H  H358  1  0.48688000  0.49123000  0.86926000  1.0
  H  H359  1  0.44222000  0.48631000  0.82432000  1.0
  H  H360  1  0.65788000  0.68620000  0.50266000  1.0
  H  H361  1  0.69714000  0.63322000  0.50924000  1.0
  H  H362  1  0.88159000  0.66533000  0.43527000  1.0
  H  H363  1  0.84737000  0.71702000  0.42911000  1.0
  H  H364  1  0.87226000  0.75391500  0.44263000  1.0
  H  H365  1  0.86316000  0.80431500  0.44122000  1.0
  H  H366  1  0.62176000  0.78394000  0.49374000  1.0
  H  H367  1  0.62768000  0.73418500  0.49273000  1.0
  H  H368  1  0.62297500  0.82605000  0.49768500  1.0
  H  H369  1  0.61554000  0.87603000  0.49844000  1.0
  H  H370  1  0.84701000  0.89979000  0.44257000  1.0
  H  H371  1  0.85875500  0.84868500  0.44174500  1.0
  O  O372  1  0.98550000  0.99220000  0.94188000  1.0
  O  O373  1  0.91646000  0.95308000  0.99780000  1.0
  O  O374  1  0.10658000  0.98849000  0.03934000  1.0
  O  O375  1  0.00254000  0.03938000  0.98690000  1.0
  O  O376  1  0.98570000  0.49208000  0.44186000  1.0
  O  O377  1  0.91759000  0.45143000  0.49811000  1.0
  O  O378  1  0.10606000  0.48743000  0.53958000  1.0
  O  O379  1  0.99996000  0.53803000  0.48634000  1.0
  O  O380  1  0.72396500  0.99777500  0.40248500  1.0
  O  O381  1  0.58462500  0.98172000  0.41261500  1.0
  O  O382  1  0.65094500  0.99327000  0.46770500  1.0
  O  O383  1  0.62783500  0.93167000  0.46769500  1.0
  O  O384  1  0.77095500  0.94446500  0.45903500  1.0
  O  O385  1  0.47470500  0.97187000  0.46679500  1.0
  O  O386  1  0.48468500  0.02322500  0.44138500  1.0
  O  O387  1  0.75105500  0.99330500  0.53232500  1.0
  O  O388  1  0.89481000  0.00489000  0.52583000  1.0
  O  O389  1  0.82389500  0.00215500  0.46676500  1.0
  O  O390  1  0.86172000  0.05954500  0.47262000  1.0
  O  O391  1  0.71473000  0.05095000  0.47665000  1.0
  O  O392  1  0.00849500  0.01574500  0.47137500  1.0
  O  O393  1  0.99158000  0.96428500  0.49418000  1.0
  O  O394  1  0.72192000  0.49762000  0.90234000  1.0
  O  O395  1  0.58393000  0.48024000  0.91277000  1.0
  O  O396  1  0.64889000  0.49276500  0.96747000  1.0
  O  O397  1  0.62921000  0.43041000  0.96837000  1.0
  O  O398  1  0.77112000  0.44439000  0.95850000  1.0
  O  O399  1  0.47674000  0.46972000  0.96782000  1.0
  O  O400  1  0.48017000  0.52135000  0.94239000  1.0
  O  O401  1  0.74932000  0.49385000  0.03166000  1.0
  O  O402  1  0.89391000  0.50409000  0.02525000  1.0
  O  O403  1  0.82061500  0.50253000  0.96560500  1.0
  O  O404  1  0.86203000  0.55810000  0.97187000  1.0
  O  O405  1  0.71397000  0.55132000  0.97531000  1.0
  O  O406  1  0.00388000  0.51565000  0.96899000  1.0
  O  O407  1  0.00088500  0.46425000  0.99566500  1.0
  Zn  Zn408  1  0.58612000  0.97032500  0.45415000  1.0
  Zn  Zn409  1  0.74546500  0.98598500  0.44728500  1.0
  Zn  Zn410  1  0.89698500  0.01958500  0.48379500  1.0
  Zn  Zn411  1  0.73179000  0.00842000  0.48754000  1.0
  Zn  Zn412  1  0.58647000  0.46896000  0.95435000  1.0
  Zn  Zn413  1  0.74318000  0.48563000  0.94695000  1.0
  Zn  Zn414  1  0.89486000  0.51850000  0.98306000  1.0
  Zn  Zn415  1  0.72932000  0.50868000  0.98671000  1.0
