# generated using pymatgen
data_CuH52C71NO5
_symmetry_space_group_name_H-M   'P 1'
_cell_length_a   23.47065000
_cell_length_b   35.04120000
_cell_length_c   37.14270000
_cell_angle_alpha   89.99500000
_cell_angle_beta   89.99700000
_cell_angle_gamma   84.77100000
_symmetry_Int_Tables_number   1
_chemical_formula_structural   CuH52C71NO5
_chemical_formula_sum   'Cu4 H208 C284 N4 O20'
_cell_volume   30420.50531839
_cell_formula_units_Z   4
loop_
 _symmetry_equiv_pos_site_id
 _symmetry_equiv_pos_as_xyz
  1  'x, y, z'
loop_
 _atom_site_type_symbol
 _atom_site_label
 _atom_site_symmetry_multiplicity
 _atom_site_fract_x
 _atom_site_fract_y
 _atom_site_fract_z
 _atom_site_occupancy
  C  C0  1  0.12124000  0.95666000  0.05461000  1.0
  C  C1  1  0.17094000  0.93416000  0.06489000  1.0
  C  C2  1  0.19358000  0.90478000  0.04177000  1.0
  C  C3  1  0.16256000  0.89640000  0.01071000  1.0
  C  C4  1  0.11446000  0.91997000  0.00113000  1.0
  C  C5  1  0.92708000  0.94893000  0.99686000  1.0
  C  C6  1  0.01650000  0.98099000  0.92587000  1.0
  C  C7  1  0.04052000  0.05790000  0.98226000  1.0
  C  C8  1  0.95272000  0.02648000  0.05495500  1.0
  C  C9  1  0.78622000  0.09782000  0.97317000  1.0
  C  C10  1  0.85264000  0.05596000  0.92224000  1.0
  C  C11  1  0.80242000  0.07731000  0.91132000  1.0
  C  C12  1  0.76912000  0.09788000  0.93733000  1.0
  C  C13  1  0.83630000  0.07665000  0.98266000  1.0
  C  C14  1  0.84754000  0.55226000  0.55432000  1.0
  C  C15  1  0.79798000  0.57481000  0.56464000  1.0
  C  C16  1  0.77534000  0.60422000  0.54144000  1.0
  C  C17  1  0.80686000  0.61267000  0.51053000  1.0
  C  C18  1  0.85450000  0.58894000  0.50085000  1.0
  C  C19  1  0.03956000  0.56182000  0.49670000  1.0
  C  C20  1  0.95350000  0.52709000  0.42506000  1.0
  C  C21  1  0.92766000  0.45131000  0.48417000  1.0
  C  C22  1  0.01506000  0.48307000  0.55500000  1.0
  C  C23  1  0.18136000  0.41106000  0.47431000  1.0
  C  C24  1  0.11638000  0.45363000  0.42369000  1.0
  C  C25  1  0.16748000  0.43312000  0.41297000  1.0
  C  C26  1  0.20198000  0.41209000  0.43874000  1.0
  C  C27  1  0.13152000  0.43251000  0.48386000  1.0
  C  C28  1  0.67832000  0.62159000  0.13074000  1.0
  C  C29  1  0.71640000  0.64726000  0.11045000  1.0
  C  C30  1  0.70186000  0.65628000  0.07603000  1.0
  C  C31  1  0.64346000  0.64426000  0.06640000  1.0
  C  C32  1  0.62176000  0.64773000  0.13137000  1.0
  C  C33  1  0.60322000  0.65992000  0.09734000  1.0
  C  C34  1  0.66624000  0.58859000  0.10398000  1.0
  C  C35  1  0.64590000  0.60111000  0.07048000  1.0
  C  C36  1  0.28724000  0.88818000  0.62973000  1.0
  C  C37  1  0.24524000  0.86525000  0.60919000  1.0
  C  C38  1  0.26350000  0.85337000  0.57594000  1.0
  C  C39  1  0.32172000  0.86537000  0.56529000  1.0
  C  C40  1  0.34320000  0.86108000  0.62965000  1.0
  C  C41  1  0.36194000  0.84921000  0.59590000  1.0
  C  C42  1  0.30004000  0.92088000  0.60327000  1.0
  C  C43  1  0.31912000  0.90868000  0.56946000  1.0
  C  C44  1  0.29214000  0.38255000  0.84696000  1.0
  C  C45  1  0.30806000  0.41441000  0.87333000  1.0
  C  C46  1  0.32614000  0.40186000  0.90718000  1.0
  C  C47  1  0.32502000  0.35860000  0.91122000  1.0
  C  C48  1  0.34586000  0.35399000  0.84649000  1.0
  C  C49  1  0.36264000  0.34132000  0.88013000  1.0
  C  C50  1  0.24812000  0.36163000  0.86742000  1.0
  C  C51  1  0.26408000  0.34921000  0.90135000  1.0
  C  C52  1  0.68086000  0.12393000  0.34950000  1.0
  C  C53  1  0.66838000  0.09196000  0.37705000  1.0
  C  C54  1  0.64920000  0.10557000  0.41040000  1.0
  C  C55  1  0.64528000  0.14903000  0.41308000  1.0
  C  C56  1  0.62418000  0.14985000  0.34841000  1.0
  C  C57  1  0.60596000  0.16299000  0.38181000  1.0
  C  C58  1  0.72148000  0.14884000  0.36929000  1.0
  C  C59  1  0.70338000  0.16065000  0.40236000  1.0
  C  C60  1  0.07252000  0.08928000  0.97537000  1.0
  C  C61  1  0.10636000  0.10257000  0.00277000  1.0
  C  C62  1  0.06536000  0.10765000  0.94209000  1.0
  C  C63  1  0.09032000  0.14117000  0.93656000  1.0
  C  C64  1  0.13168000  0.13640000  0.99756000  1.0
  C  C65  1  0.16638000  0.15218000  0.02754000  1.0
  C  C66  1  0.12282000  0.15539000  0.96428000  1.0
  C  C67  1  0.14832000  0.18905000  0.95765000  1.0
  C  C68  1  0.16984000  0.21731000  0.95132000  1.0
  C  C69  1  0.19244000  0.25144000  0.94200000  1.0
  C  C70  1  0.16362000  0.27345000  0.91542000  1.0
  C  C71  1  0.24018000  0.26347000  0.96007000  1.0
  C  C72  1  0.27094000  0.23888000  0.98915000  1.0
  C  C73  1  0.25864000  0.29899000  0.95049000  1.0
  C  C74  1  0.18240000  0.30820000  0.90604000  1.0
  C  C75  1  0.23352000  0.31974000  0.92073000  1.0
  C  C76  1  0.89928000  0.41747000  0.48074000  1.0
  C  C77  1  0.93330000  0.38269000  0.48321000  1.0
  C  C78  1  0.84188000  0.41950000  0.47036000  1.0
  C  C79  1  0.81896000  0.38595000  0.46059000  1.0
  C  C80  1  0.91134000  0.34908000  0.47300000  1.0
  C  C81  1  0.94992000  0.31203000  0.47383000  1.0
  C  C82  1  0.85396000  0.35123000  0.46139000  1.0
  C  C83  1  0.82964000  0.31767000  0.45185000  1.0
  C  C84  1  0.80790000  0.28922000  0.44621000  1.0
  C  C85  1  0.78000000  0.25647000  0.43861000  1.0
  C  C86  1  0.72978000  0.26172000  0.41826000  1.0
  C  C87  1  0.80238000  0.21996000  0.45083000  1.0
  C  C88  1  0.85650000  0.21418000  0.47316000  1.0
  C  C89  1  0.77508000  0.18818000  0.43986000  1.0
  C  C90  1  0.70220000  0.23012000  0.40849000  1.0
  C  C91  1  0.72598000  0.19350000  0.41845000  1.0
  C  C92  1  0.89910000  0.91539000  0.00474000  1.0
  C  C93  1  0.93022000  0.88637000  0.02458000  1.0
  C  C94  1  0.84344000  0.91156000  0.99289000  1.0
  C  C95  1  0.81960000  0.87766000  0.99999000  1.0
  C  C96  1  0.90754000  0.85223000  0.03127000  1.0
  C  C97  1  0.94388000  0.82118000  0.05139000  1.0
  C  C98  1  0.85174000  0.84826000  0.01872000  1.0
  C  C99  1  0.82574000  0.81468000  0.02561000  1.0
  C  C100  1  0.80316000  0.78657000  0.03134000  1.0
  C  C101  1  0.77932000  0.75253000  0.04002000  1.0
  C  C102  1  0.73188000  0.74265000  0.02037000  1.0
  C  C103  1  0.80546000  0.72799000  0.06632000  1.0
  C  C104  1  0.85148000  0.73898000  0.09197000  1.0
  C  C105  1  0.78680000  0.69192000  0.06953000  1.0
  C  C106  1  0.70696000  0.70926000  0.02928000  1.0
  C  C107  1  0.73266000  0.68491000  0.05622000  1.0
  C  C108  1  0.07008000  0.59390000  0.50252000  1.0
  C  C109  1  0.08242000  0.61628000  0.47304000  1.0
  C  C110  1  0.08170000  0.60397000  0.53793000  1.0
  C  C111  1  0.10828000  0.63692000  0.54401000  1.0
  C  C112  1  0.10882000  0.64961000  0.47874000  1.0
  C  C113  1  0.12232000  0.67418000  0.44694000  1.0
  C  C114  1  0.12204000  0.65932000  0.51450000  1.0
  C  C115  1  0.14852000  0.69277000  0.52146000  1.0
  C  C116  1  0.17004000  0.72116000  0.52784000  1.0
  C  C117  1  0.19680000  0.75387000  0.53744000  1.0
  C  C118  1  0.22406000  0.75323000  0.57087000  1.0
  C  C119  1  0.19434000  0.78622000  0.51461000  1.0
  C  C120  1  0.16382000  0.78690000  0.47858000  1.0
  C  C121  1  0.22022000  0.81846000  0.52637000  1.0
  C  C122  1  0.24860000  0.78536000  0.58241000  1.0
  C  C123  1  0.24414000  0.81849000  0.56097000  1.0
  C  C124  1  0.45704000  0.50403000  0.99412000  1.0
  C  C125  1  0.42208000  0.47542000  0.97455000  1.0
  C  C126  1  0.38394000  0.48985000  0.94766000  1.0
  C  C127  1  0.34876000  0.46633000  0.92957000  1.0
  C  C128  1  0.35460000  0.42646000  0.93432000  1.0
  C  C129  1  0.39114000  0.41140000  0.96280000  1.0
  C  C130  1  0.42474000  0.43575000  0.98262000  1.0
  C  C131  1  0.45252000  0.52128000  0.05523000  1.0
  C  C132  1  0.51168000  0.51230000  0.97231000  1.0
  C  C133  1  0.55072000  0.53528000  0.99521000  1.0
  C  C134  1  0.59548000  0.51715000  0.01634000  1.0
  C  C135  1  0.62776000  0.53851000  0.03960000  1.0
  C  C136  1  0.61508000  0.57831000  0.04315000  1.0
  C  C137  1  0.57170000  0.59655000  0.02035000  1.0
  C  C138  1  0.53998000  0.57530000  0.99703000  1.0
  C  C139  1  0.58046000  0.48543000  0.93150000  1.0
  C  C140  1  0.49438000  0.98912000  0.49499000  1.0
  C  C141  1  0.44562000  0.96826000  0.51144000  1.0
  C  C142  1  0.44694000  0.96269000  0.54890000  1.0
  C  C143  1  0.40614000  0.94309000  0.56637000  1.0
  C  C144  1  0.35990000  0.93009000  0.54774000  1.0
  C  C145  1  0.35848000  0.93382000  0.50951000  1.0
  C  C146  1  0.40064000  0.95359000  0.49149000  1.0
  C  C147  1  0.56398000  0.96641000  0.45276000  1.0
  C  C148  1  0.48338000  0.03360000  0.49975000  1.0
  C  C149  1  0.52654000  0.05414000  0.47764000  1.0
  C  C150  1  0.51354000  0.06580000  0.44203000  1.0
  C  C151  1  0.55428000  0.08172000  0.42063000  1.0
  C  C152  1  0.60960000  0.08554000  0.43371000  1.0
  C  C153  1  0.62186000  0.07669000  0.47026000  1.0
  C  C154  1  0.58102000  0.06012000  0.49179000  1.0
  C  C155  1  0.40950000  0.08367000  0.50359000  1.0
  C  C156  1  0.24884000  0.88227000  0.04891000  1.0
  C  C157  1  0.27962000  0.86568000  0.01933000  1.0
  C  C158  1  0.26822000  0.87361000  0.08420000  1.0
  C  C159  1  0.31309000  0.84531500  0.08939000  1.0
  C  C160  1  0.31994000  0.83461000  0.02422000  1.0
  C  C161  1  0.34228000  0.81152000  0.99173000  1.0
  C  C162  1  0.33640000  0.82484000  0.05963500  1.0
  C  C163  1  0.37950000  0.79510500  0.06571500  1.0
  C  C164  1  0.41847000  0.77197000  0.07073000  1.0
  C  C165  1  0.46481000  0.74452000  0.07654000  1.0
  C  C166  1  0.47139000  0.72899500  0.11108000  1.0
  C  C167  1  0.50310000  0.73365500  0.04855000  1.0
  C  C168  1  0.49758000  0.75047000  0.01080000  1.0
  C  C169  1  0.54702000  0.70551000  0.05579500  1.0
  C  C170  1  0.51574000  0.70105500  0.11807000  1.0
  C  C171  1  0.55448000  0.68900000  0.09047000  1.0
  C  C172  1  0.72004000  0.62695000  0.54845000  1.0
  C  C173  1  0.69176000  0.64602000  0.51917000  1.0
  C  C174  1  0.69772000  0.63310000  0.58349000  1.0
  C  C175  1  0.65302000  0.66151000  0.58906000  1.0
  C  C176  1  0.65246000  0.67746000  0.52482000  1.0
  C  C177  1  0.63416000  0.70318000  0.49320000  1.0
  C  C178  1  0.63292000  0.68475000  0.56015000  1.0
  C  C179  1  0.58940000  0.71436000  0.56669000  1.0
  C  C180  1  0.55000000  0.73755000  0.57100500  1.0
  C  C181  1  0.50324000  0.76514000  0.57650000  1.0
  C  C182  1  0.49246000  0.77817000  0.61156000  1.0
  C  C183  1  0.46890000  0.77890000  0.54745000  1.0
  C  C184  1  0.47850000  0.76437000  0.50919000  1.0
  C  C185  1  0.42526000  0.80767000  0.55412000  1.0
  C  C186  1  0.44734000  0.80578000  0.61816500  1.0
  C  C187  1  0.41240000  0.82080000  0.58947000  1.0
  C  C188  1  0.71810000  0.12172000  0.92746000  1.0
  C  C189  1  0.66642000  0.11653000  0.94515000  1.0
  C  C190  1  0.72322000  0.15305000  0.90465000  1.0
  C  C191  1  0.67630000  0.17930000  0.89927000  1.0
  C  C192  1  0.61900000  0.14293000  0.94017000  1.0
  C  C193  1  0.56390000  0.13815000  0.96041000  1.0
  C  C194  1  0.62480000  0.17407000  0.91681000  1.0
  C  C195  1  0.57905000  0.20209500  0.91158500  1.0
  C  C196  1  0.54182000  0.22658500  0.90707000  1.0
  C  C197  1  0.49789000  0.25577000  0.90138500  1.0
  C  C198  1  0.50070000  0.27840000  0.87050000  1.0
  C  C199  1  0.45204000  0.26093000  0.92574000  1.0
  C  C200  1  0.44920000  0.23796000  0.96029000  1.0
  C  C201  1  0.40672000  0.28737000  0.91679000  1.0
  C  C202  1  0.45706000  0.30688000  0.86344000  1.0
  C  C203  1  0.40944000  0.31131000  0.88653000  1.0
  C  C204  1  0.25608000  0.38856000  0.42888000  1.0
  C  C205  1  0.27064000  0.38035000  0.39248000  1.0
  C  C206  1  0.29138000  0.37088500  0.45625000  1.0
  C  C207  1  0.33152000  0.34088000  0.44810000  1.0
  C  C208  1  0.31356000  0.35137500  0.38391500  1.0
  C  C209  1  0.32782000  0.34198000  0.34488500  1.0
  C  C210  1  0.34155000  0.33075500  0.41230000  1.0
  C  C211  1  0.38392000  0.30056000  0.40563500  1.0
  C  C212  1  0.42299000  0.27697500  0.40249000  1.0
  C  C213  1  0.46982000  0.24946500  0.39753500  1.0
  C  C214  1  0.48357000  0.22312500  0.42523500  1.0
  C  C215  1  0.50135000  0.24889500  0.36525500  1.0
  C  C216  1  0.48771000  0.27753500  0.33519500  1.0
  C  C217  1  0.54528000  0.21997000  0.36044000  1.0
  C  C218  1  0.52731000  0.19419500  0.42002000  1.0
  C  C219  1  0.55790000  0.19224000  0.38727500  1.0
  C  C220  1  0.04548000  0.96899000  0.89071000  1.0
  C  C221  1  0.10556000  0.96094000  0.89139000  1.0
  C  C222  1  0.01710000  0.96490000  0.85743000  1.0
  C  C223  1  0.04896000  0.95416000  0.82588000  1.0
  C  C224  1  0.13772000  0.95085000  0.86025000  1.0
  C  C225  1  0.20222000  0.94451000  0.86350000  1.0
  C  C226  1  0.10944000  0.94758000  0.82684000  1.0
  C  C227  1  0.14206000  0.93701000  0.79386000  1.0
  C  C228  1  0.17030000  0.92812000  0.76696000  1.0
  C  C229  1  0.20268000  0.91797000  0.73382000  1.0
  C  C230  1  0.17672000  0.92737000  0.70051000  1.0
  C  C231  1  0.25882000  0.89886000  0.73417000  1.0
  C  C232  1  0.28810000  0.88749000  0.76958000  1.0
  C  C233  1  0.28810000  0.89092000  0.70096000  1.0
  C  C234  1  0.20560000  0.91907000  0.66796000  1.0
  C  C235  1  0.26164000  0.90066000  0.66713000  1.0
  C  C236  1  0.92772000  0.53713000  0.38876000  1.0
  C  C237  1  0.95314000  0.56044000  0.36318000  1.0
  C  C238  1  0.87274000  0.52604000  0.38140000  1.0
  C  C239  1  0.84262000  0.53862000  0.35030000  1.0
  C  C240  1  0.92258000  0.57374000  0.33158000  1.0
  C  C241  1  0.94938000  0.60000000  0.30529000  1.0
  C  C242  1  0.86620000  0.56301000  0.32540000  1.0
  C  C243  1  0.83178000  0.57588000  0.29366000  1.0
  C  C244  1  0.80248000  0.58410000  0.26700000  1.0
  C  C245  1  0.77046000  0.59434000  0.23367000  1.0
  C  C246  1  0.71020000  0.59328000  0.23195000  1.0
  C  C247  1  0.79988000  0.60301000  0.20192000  1.0
  C  C248  1  0.86382000  0.60673000  0.20150000  1.0
  C  C249  1  0.76938000  0.60880000  0.16953000  1.0
  C  C250  1  0.67944000  0.60164000  0.19941000  1.0
  C  C251  1  0.70864000  0.60988000  0.16733000  1.0
  C  C252  1  0.92690000  0.03992000  0.09076000  1.0
  C  C253  1  0.94844000  0.02614000  0.12442000  1.0
  C  C254  1  0.87682000  0.06565000  0.09111000  1.0
  C  C255  1  0.84660000  0.07503000  0.12292000  1.0
  C  C256  1  0.91844000  0.03599000  0.15713000  1.0
  C  C257  1  0.94148000  0.01996000  0.19260000  1.0
  C  C258  1  0.86618000  0.06016000  0.15616000  1.0
  C  C259  1  0.83224000  0.07088000  0.18862000  1.0
  C  C260  1  0.80338000  0.08081000  0.21503000  1.0
  C  C261  1  0.77158000  0.09220000  0.24813000  1.0
  C  C262  1  0.71300000  0.10593000  0.24676000  1.0
  C  C263  1  0.79888000  0.08926000  0.28215000  1.0
  C  C264  1  0.86208000  0.07746000  0.28604000  1.0
  C  C265  1  0.76666000  0.09650000  0.31375000  1.0
  C  C266  1  0.68194000  0.11575000  0.27873000  1.0
  C  C267  1  0.70846000  0.11060000  0.31307000  1.0
  C  C268  1  0.04020000  0.47077000  0.59103000  1.0
  C  C269  1  0.05126000  0.49835500  0.61717000  1.0
  C  C270  1  0.06076000  0.43216000  0.59756000  1.0
  C  C271  1  0.09274000  0.42164500  0.62886500  1.0
  C  C272  1  0.08448000  0.48826500  0.64841000  1.0
  C  C273  1  0.09842000  0.51943000  0.67431000  1.0
  C  C274  1  0.10590000  0.44940000  0.65435500  1.0
  C  C275  1  0.14088000  0.43747000  0.68633000  1.0
  C  C276  1  0.16896000  0.42742500  0.71316000  1.0
  C  C277  1  0.20189000  0.41671500  0.74622000  1.0
  C  C278  1  0.23703000  0.38174500  0.74790500  1.0
  C  C279  1  0.19792000  0.44039000  0.77735500  1.0
  C  C280  1  0.15963000  0.47736000  0.77861500  1.0
  C  C281  1  0.23053000  0.42975500  0.80829000  1.0
  C  C282  1  0.26852000  0.37105000  0.77943500  1.0
  C  C283  1  0.26707000  0.39566000  0.80994000  1.0
  Cu  Cu284  1  0.02952000  0.98452000  0.00550000  1.0
  Cu  Cu285  1  0.93678000  0.02302000  0.97461000  1.0
  Cu  Cu286  1  0.93886000  0.52563000  0.50495000  1.0
  Cu  Cu287  1  0.03114000  0.48641000  0.47536000  1.0
  H  H288  1  0.10412000  0.97987000  0.07190000  1.0
  H  H289  1  0.19188000  0.94040000  0.09002000  1.0
  H  H290  1  0.17568000  0.87212000  0.99334000  1.0
  H  H291  1  0.09320000  0.91400000  0.97607000  1.0
  H  H292  1  0.76142000  0.11450000  0.99358000  1.0
  H  H293  1  0.87852000  0.03967000  0.90240000  1.0
  H  H294  1  0.78922000  0.07773000  0.88322000  1.0
  H  H295  1  0.84834000  0.07767000  0.01028000  1.0
  H  H296  1  0.86500000  0.52919000  0.57170000  1.0
  H  H297  1  0.77754000  0.56863000  0.58995000  1.0
  H  H298  1  0.79490000  0.63719000  0.49328000  1.0
  H  H299  1  0.87628000  0.59486000  0.47596000  1.0
  H  H300  1  0.20178000  0.39336000  0.49539000  1.0
  H  H301  1  0.09018000  0.46937000  0.40360000  1.0
  H  H302  1  0.17852000  0.43402000  0.38470000  1.0
  H  H303  1  0.11918000  0.43104000  0.51176000  1.0
  H  H304  1  0.74288000  0.66561000  0.12566000  1.0
  H  H305  1  0.63412000  0.65241000  0.03831000  1.0
  H  H306  1  0.60276000  0.65891000  0.15644000  1.0
  H  H307  1  0.66518000  0.55905000  0.11279000  1.0
  H  H308  1  0.20966000  0.85287000  0.62250000  1.0
  H  H309  1  0.33154000  0.85678000  0.53704000  1.0
  H  H310  1  0.36344000  0.84987000  0.65409000  1.0
  H  H311  1  0.30456000  0.94988000  0.61260000  1.0
  H  H312  1  0.31010000  0.44365000  0.86422000  1.0
  H  H313  1  0.33914000  0.34915000  0.93836000  1.0
  H  H314  1  0.36694000  0.34324000  0.82186000  1.0
  H  H315  1  0.21184000  0.35228000  0.85274000  1.0
  H  H316  1  0.66390000  0.06262000  0.36868000  1.0
  H  H317  1  0.63238000  0.16033000  0.44035000  1.0
  H  H318  1  0.60144000  0.15848000  0.32377000  1.0
  H  H319  1  0.75656000  0.16168000  0.35582000  1.0
  H  H320  1  0.11118000  0.08736000  0.02838000  1.0
  H  H321  1  0.03984000  0.09620000  0.92078000  1.0
  H  H322  1  0.08386000  0.15593000  0.91086000  1.0
  H  H323  1  0.17092000  0.13216000  0.05092000  1.0
  H  H324  1  0.21006000  0.15651000  0.01756000  1.0
  H  H325  1  0.14488000  0.18001000  0.03712000  1.0
  H  H326  1  0.12696000  0.26347000  0.90137000  1.0
  H  H327  1  0.24702000  0.24235000  0.01502000  1.0
  H  H328  1  0.27434000  0.20792000  0.98150000  1.0
  H  H329  1  0.31544000  0.24664000  0.99324000  1.0
  H  H330  1  0.29338000  0.30907000  0.96593000  1.0
  H  H331  1  0.15720000  0.32486000  0.88621000  1.0
  H  H332  1  0.97776000  0.38213000  0.49194000  1.0
  H  H333  1  0.81604000  0.44689000  0.46829000  1.0
  H  H334  1  0.77450000  0.38718000  0.45189000  1.0
  H  H335  1  0.99316000  0.31656000  0.48472000  1.0
  H  H336  1  0.93102000  0.29085000  0.49150000  1.0
  H  H337  1  0.95582000  0.30034000  0.44606000  1.0
  H  H338  1  0.71286000  0.29011000  0.40909000  1.0
  H  H339  1  0.89464000  0.21528000  0.45545000  1.0
  H  H340  1  0.85698000  0.23665000  0.49436000  1.0
  H  H341  1  0.85944000  0.18587000  0.48709000  1.0
  H  H342  1  0.79258000  0.15936000  0.44715000  1.0
  H  H343  1  0.66410000  0.23410000  0.39172000  1.0
  H  H344  1  0.97282000  0.89008000  0.03496000  1.0
  H  H345  1  0.81886000  0.93442000  0.97822000  1.0
  H  H346  1  0.77622000  0.87438000  0.99088000  1.0
  H  H347  1  0.98560000  0.83128000  0.06012000  1.0
  H  H348  1  0.92136000  0.81291000  0.07612000  1.0
  H  H349  1  0.95400000  0.79590000  0.03362000  1.0
  H  H350  1  0.71316000  0.76153000  0.99928000  1.0
  H  H351  1  0.89444000  0.73120000  0.08012000  1.0
  H  H352  1  0.84590000  0.77004000  0.09889000  1.0
  H  H353  1  0.84846000  0.72323000  0.11802000  1.0
  H  H354  1  0.81088000  0.67121000  0.08677000  1.0
  H  H355  1  0.66802000  0.70355000  0.01541000  1.0
  H  H356  1  0.06978000  0.60829000  0.44600000  1.0
  H  H357  1  0.06952000  0.58655000  0.56054000  1.0
  H  H358  1  0.11734000  0.64500000  0.57162000  1.0
  H  H359  1  0.10460000  0.66330000  0.42144000  1.0
  H  H360  1  0.10308000  0.70412000  0.45102000  1.0
  H  H361  1  0.16956000  0.67392000  0.44393000  1.0
  H  H362  1  0.22486000  0.72826000  0.58846000  1.0
  H  H363  1  0.19050000  0.76978000  0.45846000  1.0
  H  H364  1  0.12172000  0.77474000  0.48119000  1.0
  H  H365  1  0.15500000  0.81678000  0.46835000  1.0
  H  H366  1  0.21990000  0.84381000  0.50937000  1.0
  H  H367  1  0.26978000  0.78476000  0.60850000  1.0
  H  H368  1  0.42930000  0.53197000  0.99359000  1.0
  H  H369  1  0.38144000  0.51991000  0.94027000  1.0
  H  H370  1  0.31762000  0.47982000  0.91101000  1.0
  H  H371  1  0.39524000  0.38112000  0.96988000  1.0
  H  H372  1  0.45360000  0.42346000  0.00348000  1.0
  H  H373  1  0.40492000  0.52686000  0.05537000  1.0
  H  H374  1  0.46654000  0.51229000  0.08280000  1.0
  H  H375  1  0.47172000  0.54864000  0.04955000  1.0
  H  H376  1  0.49436000  0.53045000  0.94918000  1.0
  H  H377  1  0.60476000  0.48624000  0.01545000  1.0
  H  H378  1  0.66256000  0.52393000  0.05496000  1.0
  H  H379  1  0.55986000  0.62724000  0.02069000  1.0
  H  H380  1  0.50498000  0.58998000  0.98160000  1.0
  H  H381  1  0.56722000  0.51139000  0.91488000  1.0
  H  H382  1  0.62346000  0.48852000  0.94331000  1.0
  H  H383  1  0.58462000  0.46081000  0.91247000  1.0
  H  H384  1  0.53268000  0.98085000  0.51247000  1.0
  H  H385  1  0.48070000  0.97325000  0.56500000  1.0
  H  H386  1  0.41166000  0.93701000  0.59487000  1.0
  H  H387  1  0.32552000  0.92151000  0.49362000  1.0
  H  H388  1  0.39810000  0.95736000  0.46233000  1.0
  H  H389  1  0.57684000  0.93955000  0.46801000  1.0
  H  H390  1  0.57218000  0.96067000  0.42367000  1.0
  H  H391  1  0.59242000  0.98880000  0.46080000  1.0
  H  H392  1  0.49066000  0.03860000  0.52915000  1.0
  H  H393  1  0.47182000  0.06228000  0.43047000  1.0
  H  H394  1  0.54214000  0.09210000  0.39387000  1.0
  H  H395  1  0.66256000  0.08255000  0.48222000  1.0
  H  H396  1  0.59220000  0.05108000  0.51918000  1.0
  H  H397  1  0.43110000  0.09081000  0.52925000  1.0
  H  H398  1  0.41752000  0.10545000  0.48277000  1.0
  H  H399  1  0.36276000  0.08625000  0.50941000  1.0
  H  H400  1  0.26966000  0.87524000  0.99204000  1.0
  H  H401  1  0.24810000  0.88736000  0.10778000  1.0
  H  H402  1  0.32828000  0.83839500  0.11661000  1.0
  H  H403  1  0.32172000  0.82288000  0.96634000  1.0
  H  H404  1  0.38934000  0.81248000  0.98903000  1.0
  H  H405  1  0.33214000  0.78114000  0.99440000  1.0
  H  H406  1  0.44198000  0.73858000  0.13263000  1.0
  H  H407  1  0.46386000  0.73693000  0.99555000  1.0
  H  H408  1  0.48714000  0.78209000  0.01173000  1.0
  H  H409  1  0.53862000  0.74530000  0.99555000  1.0
  H  H410  1  0.57482000  0.69771000  0.03353000  1.0
  H  H411  1  0.51872000  0.68914000  0.14502000  1.0
  H  H412  1  0.70266000  0.63803000  0.49160000  1.0
  H  H413  1  0.71496000  0.61709000  0.60668000  1.0
  H  H414  1  0.63532000  0.66621000  0.61602000  1.0
  H  H415  1  0.65730000  0.69355000  0.46806000  1.0
  H  H416  1  0.58750000  0.70289000  0.48821000  1.0
  H  H417  1  0.64468000  0.73307000  0.49853000  1.0
  H  H418  1  0.51902000  0.76674000  0.63386000  1.0
  H  H419  1  0.51426000  0.77835000  0.49653000  1.0
  H  H420  1  0.48824000  0.73265000  0.50872000  1.0
  H  H421  1  0.43928000  0.77087000  0.49245000  1.0
  H  H422  1  0.40200000  0.81894000  0.53090000  1.0
  H  H423  1  0.44114000  0.81489000  0.64585000  1.0
  H  H424  1  0.66396000  0.09273000  0.96379000  1.0
  H  H425  1  0.76408000  0.15810000  0.89251000  1.0
  H  H426  1  0.68066000  0.20427000  0.88230000  1.0
  H  H427  1  0.56922000  0.11369000  0.97972000  1.0
  H  H428  1  0.55062000  0.16449000  0.97627000  1.0
  H  H429  1  0.52926000  0.13260500  0.94111000  1.0
  H  H430  1  0.53676000  0.27406000  0.85199000  1.0
  H  H431  1  0.43328000  0.20961000  0.95449000  1.0
  H  H432  1  0.49194000  0.23372000  0.97351000  1.0
  H  H433  1  0.41974000  0.25345000  0.98010000  1.0
  H  H434  1  0.36950000  0.28872000  0.93376000  1.0
  H  H435  1  0.46086000  0.32524000  0.84014000  1.0
  H  H436  1  0.24866000  0.39539000  0.37035000  1.0
  H  H437  1  0.28790000  0.37888000  0.48439000  1.0
  H  H438  1  0.35461000  0.32538000  0.46991500  1.0
  H  H439  1  0.30326000  0.36209000  0.32608000  1.0
  H  H440  1  0.37426000  0.34412500  0.33991000  1.0
  H  H441  1  0.31740000  0.31231000  0.33853000  1.0
  H  H442  1  0.46017000  0.22477000  0.45068000  1.0
  H  H443  1  0.44990000  0.26942000  0.31980500  1.0
  H  H444  1  0.47885000  0.30712000  0.34605500  1.0
  H  H445  1  0.52454000  0.27799000  0.31627000  1.0
  H  H446  1  0.57044000  0.21980000  0.33590000  1.0
  H  H447  1  0.53652000  0.17344000  0.44151000  1.0
  H  H448  1  0.12832000  0.96288000  0.91673000  1.0
  H  H449  1  0.97064000  0.96916000  0.85573000  1.0
  H  H450  1  0.02644000  0.95086000  0.80057000  1.0
  H  H451  1  0.21630000  0.94571000  0.89217000  1.0
  H  H452  1  0.21790000  0.91578000  0.85279000  1.0
  H  H453  1  0.22244000  0.96726000  0.84847000  1.0
  H  H454  1  0.13314000  0.94082000  0.69955000  1.0
  H  H455  1  0.30522000  0.91295000  0.78217000  1.0
  H  H456  1  0.25744000  0.87575000  0.78871000  1.0
  H  H457  1  0.32408000  0.86478000  0.76572000  1.0
  H  H458  1  0.33104000  0.87661000  0.70229000  1.0
  H  H459  1  0.18290000  0.92579000  0.64291000  1.0
  H  H460  1  0.99572000  0.56929000  0.36834000  1.0
  H  H461  1  0.85260000  0.50765000  0.40023000  1.0
  H  H462  1  0.80004000  0.52956000  0.34592000  1.0
  H  H463  1  0.99428000  0.60448000  0.31281000  1.0
  H  H464  1  0.94996000  0.58747000  0.27768000  1.0
  H  H465  1  0.92410000  0.62854000  0.30463000  1.0
  H  H466  1  0.68692000  0.58570000  0.25590000  1.0
  H  H467  1  0.87342000  0.63374000  0.21520000  1.0
  H  H468  1  0.88740000  0.58164000  0.21484000  1.0
  H  H469  1  0.88044000  0.60784000  0.17339000  1.0
  H  H470  1  0.79454000  0.61371000  0.14574000  1.0
  H  H471  1  0.63310000  0.60147000  0.19947000  1.0
  H  H472  1  0.98818000  0.00753000  0.12523000  1.0
  H  H473  1  0.85994000  0.07877000  0.06668000  1.0
  H  H474  1  0.80724000  0.09399000  0.12139000  1.0
  H  H475  1  0.98436000  0.00385000  0.18937000  1.0
  H  H476  1  0.94578000  0.04374000  0.21207000  1.0
  H  H477  1  0.91156000  0.00015000  0.20398000  1.0
  H  H478  1  0.69132000  0.10943000  0.22084000  1.0
  H  H479  1  0.86926000  0.04567000  0.28522000  1.0
  H  H480  1  0.88710000  0.09037000  0.26446000  1.0
  H  H481  1  0.87832000  0.08772000  0.31224000  1.0
  H  H482  1  0.78842000  0.09329000  0.33957000  1.0
  H  H483  1  0.63766000  0.12749000  0.27600000  1.0
  H  H484  1  0.03605000  0.52819500  0.61232000  1.0
  H  H485  1  0.05242000  0.40994000  0.57828000  1.0
  H  H486  1  0.10812000  0.39167500  0.63293000  1.0
  H  H487  1  0.07634000  0.54780000  0.66666667  1.0
  H  H488  1  0.08450000  0.51249000  0.70203000  1.0
  H  H489  1  0.14542000  0.52206000  0.67430000  1.0
  H  H490  1  0.23906000  0.36211500  0.72506000  1.0
  H  H491  1  0.18122000  0.50023000  0.76475000  1.0
  H  H492  1  0.11756000  0.47381000  0.76584500  1.0
  H  H493  1  0.15086000  0.48644000  0.80704000  1.0
  H  H494  1  0.22508000  0.44764500  0.83213000  1.0
  H  H495  1  0.29243000  0.34292500  0.78013000  1.0
  N  N496  1  0.86838000  0.05567000  0.95764000  1.0
  N  N497  1  0.09548000  0.95011000  0.02256000  1.0
  N  N498  1  0.10012000  0.45391000  0.45893000  1.0
  N  N499  1  0.87296000  0.55879000  0.52217000  1.0
  O  O500  1  0.96618000  0.00103000  0.92817000  1.0
  O  O501  1  0.98070000  0.94756000  0.00574000  1.0
  O  O502  1  0.89956000  0.97917000  0.98266000  1.0
  O  O503  1  0.06500000  0.02856000  0.99954000  1.0
  O  O504  1  0.04638000  0.97382000  0.95542000  1.0
  O  O505  1  0.98802000  0.05997000  0.97022000  1.0
  O  O506  1  0.00010000  0.00346000  0.05238000  1.0
  O  O507  1  0.92450000  0.03640000  0.02535000  1.0
  O  O508  1  0.00382000  0.50750000  0.42868000  1.0
  O  O509  1  0.98648000  0.56448000  0.50692000  1.0
  O  O510  1  0.06600000  0.53113000  0.48267000  1.0
  O  O511  1  0.90304000  0.48082000  0.50123000  1.0
  O  O512  1  0.92156000  0.53468000  0.45379000  1.0
  O  O513  1  0.97910000  0.45029000  0.47052000  1.0
  O  O514  1  0.96932000  0.50750000  0.55191000  1.0
  O  O515  1  0.04302000  0.47174000  0.52582000  1.0
  O  O516  1  0.47078000  0.49199000  0.03008000  1.0
  O  O517  1  0.54106000  0.47776000  0.95917000  1.0
  O  O518  1  0.50496000  0.97855000  0.45827000  1.0
  O  O519  1  0.42584000  0.04618000  0.49030000  1.0
