# generated using pymatgen
data_Zn5H72C90N9O29
_symmetry_space_group_name_H-M   'P 1'
_cell_length_a   22.81155000
_cell_length_b   34.69320000
_cell_length_c   35.40738742
_cell_angle_alpha   61.28455762
_cell_angle_beta   86.26821083
_cell_angle_gamma   86.50400000
_symmetry_Int_Tables_number   1
_chemical_formula_structural   Zn5H72C90N9O29
_chemical_formula_sum   'Zn10 H144 C180 N18 O58'
_cell_volume   24509.17600551
_cell_formula_units_Z   2
loop_
 _symmetry_equiv_pos_site_id
 _symmetry_equiv_pos_as_xyz
  1  'x, y, z'
loop_
 _atom_site_type_symbol
 _atom_site_label
 _atom_site_symmetry_multiplicity
 _atom_site_fract_x
 _atom_site_fract_y
 _atom_site_fract_z
 _atom_site_occupancy
  C  C0  1  0.82418000  0.48917000  0.61819000  1.0
  C  C1  1  0.81156000  0.44976000  0.61898000  1.0
  C  C2  1  0.75318000  0.43819000  0.62122000  1.0
  C  C3  1  0.70730000  0.46542000  0.62416000  1.0
  C  C4  1  0.71944000  0.50526000  0.62258000  1.0
  C  C5  1  0.77796000  0.51722000  0.61938000  1.0
  C  C6  1  0.90788000  0.52150000  0.57942000  1.0
  C  C7  1  0.73516000  0.40335000  0.58274000  1.0
  C  C8  1  0.64632000  0.55644000  0.58906000  1.0
  C  C9  1  0.19750000  0.03893000  0.56004000  1.0
  C  C10  1  0.17780000  0.00636000  0.55181000  1.0
  C  C11  1  0.11768000  0.99833000  0.55545000  1.0
  C  C12  1  0.07712000  0.02391000  0.56595000  1.0
  C  C13  1  0.09622000  0.05794000  0.57224000  1.0
  C  C14  1  0.15654000  0.06524000  0.56955000  1.0
  C  C15  1  0.28310000  0.07226000  0.52537000  1.0
  C  C16  1  0.10250000  0.92525000  0.58855000  1.0
  C  C17  1  0.02670000  0.11359000  0.54934000  1.0
  C  C18  1  0.63580000  0.51978000  0.97067000  1.0
  C  C19  1  0.62010000  0.50075000  0.01478000  1.0
  C  C20  1  0.66358000  0.48422000  0.04543000  1.0
  C  C21  1  0.72266000  0.48406000  0.03208000  1.0
  C  C22  1  0.73900000  0.50374000  0.98805000  1.0
  C  C23  1  0.69542000  0.52196000  0.95736000  1.0
  C  C24  1  0.56992000  0.57597000  0.93123000  1.0
  C  C25  1  0.64720000  0.50233000  0.09945000  1.0
  C  C26  1  0.82892000  0.53435000  0.97823000  1.0
  C  C27  1  0.05258000  0.44233000  0.53159000  1.0
  C  C28  1  0.06524000  0.43032000  0.57406000  1.0
  C  C29  1  0.12256000  0.41705000  0.58827000  1.0
  C  C30  1  0.16660000  0.41345000  0.56055000  1.0
  C  C31  1  0.15430000  0.42543000  0.51798000  1.0
  C  C32  1  0.09732000  0.44025000  0.50343000  1.0
  C  C33  1  0.96234000  0.42504000  0.52131000  1.0
  C  C34  1  0.14406000  0.44514000  0.63203000  1.0
  C  C35  1  0.23144000  0.45999000  0.47195000  1.0
  C  C36  1  0.74032000  0.89034000  0.60173000  1.0
  C  C37  1  0.72760000  0.92673000  0.56189000  1.0
  C  C38  1  0.67040000  0.93472000  0.54687000  1.0
  C  C39  1  0.62642000  0.90509000  0.57103000  1.0
  C  C40  1  0.63866000  0.86885000  0.61111000  1.0
  C  C41  1  0.69546000  0.86185000  0.62661000  1.0
  C  C42  1  0.83042000  0.85572000  0.60760000  1.0
  C  C43  1  0.64118000  0.00753000  0.51217000  1.0
  C  C44  1  0.55896000  0.85487000  0.65833000  1.0
  C  C45  1  0.19334000  0.47413000  0.15390000  1.0
  C  C46  1  0.21896000  0.47572000  0.11619000  1.0
  C  C47  1  0.18814000  0.46175000  0.09227000  1.0
  C  C48  1  0.13148000  0.44592000  0.10626000  1.0
  C  C49  1  0.10468000  0.44533000  0.14334000  1.0
  C  C50  1  0.13578000  0.45963000  0.16703000  1.0
  C  C51  1  0.25834000  0.45383000  0.20747000  1.0
  C  C52  1  0.21138000  0.50230000  0.02053000  1.0
  C  C53  1  0.00484000  0.45819000  0.13604000  1.0
  C  C54  1  0.77674000  0.35402000  0.44565000  1.0
  C  C55  1  0.47106000  0.21640000  0.41703000  1.0
  C  C56  1  0.65706000  0.21986000  0.43762000  1.0
  C  C57  1  0.80930000  0.25029000  0.45315000  1.0
  C  C58  1  0.46032000  0.36697000  0.41976000  1.0
  C  C59  1  0.86170000  0.36326000  0.32122000  1.0
  C  C60  1  0.62166000  0.35546000  0.45117000  1.0
  C  C61  1  0.64182000  0.38081000  0.30293000  1.0
  C  C62  1  0.48028000  0.36452000  0.32226000  1.0
  C  C63  1  0.35652000  0.71915000  0.70117000  1.0
  C  C64  1  0.98458000  0.57435000  0.80216000  1.0
  C  C65  1  0.19882000  0.59838000  0.82075000  1.0
  C  C66  1  0.35874000  0.62022000  0.80138000  1.0
  C  C67  1  0.03682000  0.70158000  0.67432000  1.0
  C  C68  1  0.41734000  0.57338000  0.70459000  1.0
  C  C69  1  0.18898000  0.72476000  0.68065000  1.0
  C  C70  1  0.21520000  0.58390000  0.67786000  1.0
  C  C71  1  0.06400000  0.59874000  0.67084000  1.0
  C  C72  1  0.99916000  0.51391000  0.64895000  1.0
  C  C73  1  0.03720000  0.60026000  0.60268000  1.0
  C  C74  1  0.99496000  0.53687000  0.60409000  1.0
  C  C75  1  0.01394000  0.58026000  0.58105000  1.0
  C  C76  1  0.04068000  0.57748000  0.64775000  1.0
  C  C77  1  0.02136000  0.53414000  0.67069000  1.0
  C  C78  1  0.38898000  0.11187000  0.45358000  1.0
  C  C79  1  0.43672000  0.15840000  0.48983000  1.0
  C  C80  1  0.38034000  0.09758000  0.49778000  1.0
  C  C81  1  0.40476000  0.12091000  0.51581000  1.0
  C  C82  1  0.44418000  0.17361000  0.44521000  1.0
  C  C83  1  0.42066000  0.14959000  0.42743000  1.0
  C  C84  1  0.93176000  0.58109000  0.90236000  1.0
  C  C85  1  0.89180000  0.55216000  0.84763000  1.0
  C  C86  1  0.87334000  0.56872000  0.90662000  1.0
  C  C87  1  0.85412000  0.55289000  0.87998000  1.0
  C  C88  1  0.94942000  0.56712000  0.84144000  1.0
  C  C89  1  0.96972000  0.58026000  0.87004000  1.0
  C  C90  1  0.36512000  0.45764000  0.42467000  1.0
  C  C91  1  0.35534000  0.37002000  0.44412000  1.0
  C  C92  1  0.30986000  0.43888000  0.43537000  1.0
  C  C93  1  0.30538000  0.39452000  0.44624000  1.0
  C  C94  1  0.41038000  0.38963000  0.43068000  1.0
  C  C95  1  0.41504000  0.43333000  0.42222000  1.0
  C  C96  1  0.96306000  0.81133000  0.59988000  1.0
  C  C97  1  0.95812000  0.74774000  0.68677000  1.0
  C  C98  1  0.92528000  0.81821000  0.62923000  1.0
  C  C99  1  0.92276000  0.78600000  0.67258000  1.0
  C  C100  1  0.99738000  0.74118000  0.65790000  1.0
  C  C101  1  0.99928000  0.77320000  0.61420000  1.0
  C  C102  1  0.40078000  0.45368000  0.22685000  1.0
  C  C103  1  0.40112000  0.36223000  0.27769000  1.0
  C  C104  1  0.35950000  0.42945000  0.22030000  1.0
  C  C105  1  0.36030000  0.38352000  0.24558000  1.0
  C  C106  1  0.44184000  0.38652000  0.28508000  1.0
  C  C107  1  0.44178000  0.43245000  0.25890000  1.0
  C  C108  1  0.42932000  0.62042000  0.89520000  1.0
  C  C109  1  0.43488000  0.57060000  0.85213000  1.0
  C  C110  1  0.46988000  0.58493000  0.90747000  1.0
  C  C111  1  0.47168000  0.55949000  0.88625000  1.0
  C  C112  1  0.39474000  0.60669000  0.83930000  1.0
  C  C113  1  0.39182000  0.63117000  0.86155000  1.0
  C  C114  1  0.85652000  0.44051000  0.45548000  1.0
  C  C115  1  0.81256000  0.35700000  0.50953000  1.0
  C  C116  1  0.86692000  0.41963000  0.49950000  1.0
  C  C117  1  0.84498000  0.37767000  0.52653000  1.0
  C  C118  1  0.80354000  0.37752000  0.46510000  1.0
  C  C119  1  0.82540000  0.41958000  0.43832000  1.0
  C  C120  1  0.46810000  0.80510000  0.63418000  1.0
  C  C121  1  0.38598000  0.78687000  0.70241000  1.0
  C  C122  1  0.46340000  0.83226000  0.65346000  1.0
  C  C123  1  0.42214000  0.82286000  0.68776000  1.0
  C  C124  1  0.39130000  0.75915000  0.68358000  1.0
  C  C125  1  0.43266000  0.76868000  0.64926000  1.0
  C  C126  1  0.88886000  0.44265000  0.20230000  1.0
  C  C127  1  0.95282000  0.39425000  0.27642000  1.0
  C  C128  1  0.94978000  0.44743000  0.20054000  1.0
  C  C129  1  0.98160000  0.42253000  0.23774000  1.0
  C  C130  1  0.89150000  0.39031000  0.27885000  1.0
  C  C131  1  0.85974000  0.41430000  0.24124000  1.0
  C  C132  1  0.50770000  0.59544000  0.60313000  1.0
  C  C133  1  0.52134000  0.55439000  0.69207000  1.0
  C  C134  1  0.56392000  0.58158000  0.61943000  1.0
  C  C135  1  0.57026000  0.56047000  0.66420000  1.0
  C  C136  1  0.46538000  0.57070000  0.67570000  1.0
  C  C137  1  0.45874000  0.59039000  0.63097000  1.0
  C  C138  1  0.95998000  0.20223000  0.49261000  1.0
  C  C139  1  0.84220000  0.18230000  0.51861000  1.0
  C  C140  1  0.94624000  0.16662000  0.53303000  1.0
  C  C141  1  0.88704000  0.15609000  0.54535000  1.0
  C  C142  1  0.85592000  0.21885000  0.47871000  1.0
  C  C143  1  0.91526000  0.22790000  0.46547000  1.0
  C  C144  1  0.64204000  0.35765000  0.55501000  1.0
  C  C145  1  0.65218000  0.41483000  0.46627000  1.0
  C  C146  1  0.65994000  0.40062000  0.54006000  1.0
  C  C147  1  0.66564000  0.42907000  0.49548000  1.0
  C  C148  1  0.63436000  0.37161000  0.48134000  1.0
  C  C149  1  0.62974000  0.34312000  0.52596000  1.0
  C  C150  1  0.12966000  0.82883000  0.58802000  1.0
  C  C151  1  0.12510000  0.78713000  0.67819000  1.0
  C  C152  1  0.09818000  0.84878000  0.60957000  1.0
  C  C153  1  0.09542000  0.82757000  0.65483000  1.0
  C  C154  1  0.15702000  0.76717000  0.65653000  1.0
  C  C155  1  0.15854000  0.78817000  0.61127000  1.0
  C  C156  1  0.69346000  0.42222000  0.18645000  1.0
  C  C157  1  0.65342000  0.45651000  0.24100000  1.0
  C  C158  1  0.68660000  0.46787000  0.17003000  1.0
  C  C159  1  0.66682000  0.48479000  0.19754000  1.0
  C  C160  1  0.65940000  0.41070000  0.25760000  1.0
  C  C161  1  0.68006000  0.39381000  0.22996000  1.0
  C  C162  1  0.24392000  0.48237000  0.66571000  1.0
  C  C163  1  0.19838000  0.56824000  0.61763000  1.0
  C  C164  1  0.21574000  0.49423000  0.62753000  1.0
  C  C165  1  0.19418000  0.53766000  0.60298000  1.0
  C  C166  1  0.22336000  0.55558000  0.65736000  1.0
  C  C167  1  0.24774000  0.51277000  0.68057000  1.0
  C  C168  1  0.67036000  0.10767000  0.44410000  1.0
  C  C169  1  0.66252000  0.14342000  0.50028000  1.0
  C  C170  1  0.67694000  0.08005000  0.48826000  1.0
  C  C171  1  0.67128000  0.09799000  0.51647000  1.0
  C  C172  1  0.65842000  0.17148000  0.45569000  1.0
  C  C173  1  0.66088000  0.15294000  0.42792000  1.0
  C  C174  1  0.15374000  0.51181000  0.93294000  1.0
  C  C175  1  0.18100000  0.60083000  0.89017000  1.0
  C  C176  1  0.15678000  0.53444000  0.95639000  1.0
  C  C177  1  0.16940000  0.57932000  0.93474000  1.0
  C  C178  1  0.18030000  0.57763000  0.86680000  1.0
  C  C179  1  0.16522000  0.53318000  0.88850000  1.0
  H  H180  1  0.84710000  0.42757000  0.61901000  1.0
  H  H181  1  0.66226000  0.45546000  0.62808000  1.0
  H  H182  1  0.78752000  0.54712000  0.61996000  1.0
  H  H183  1  0.89474000  0.50955000  0.55706000  1.0
  H  H184  1  0.89460000  0.55705000  0.56541000  1.0
  H  H185  1  0.76486000  0.42810000  0.55736000  1.0
  H  H186  1  0.74898000  0.37111000  0.58478000  1.0
  H  H187  1  0.67834000  0.57015000  0.56086000  1.0
  H  H188  1  0.61516000  0.53614000  0.58371000  1.0
  H  H189  1  0.20938000  0.98570000  0.54494000  1.0
  H  H190  1  0.03078000  0.01711000  0.56952000  1.0
  H  H191  1  0.17166000  0.08982667  0.57684000  1.0
  H  H192  1  0.26332000  0.07423000  0.49637000  1.0
  H  H193  1  0.27718000  0.10511000  0.52399000  1.0
  H  H194  1  0.15006000  0.91549000  0.59461000  1.0
  H  H195  1  0.08226000  0.92866000  0.61652000  1.0
  H  H196  1  0.05828000  0.13401000  0.52254000  1.0
  H  H197  1  0.99696000  0.09731000  0.53779000  1.0
  H  H198  1  0.57422000  0.49922000  0.02524000  1.0
  H  H199  1  0.75610000  0.46947000  0.05581000  1.0
  H  H200  1  0.70762000  0.53593000  0.92339000  1.0
  H  H201  1  0.59128000  0.59118000  0.94821000  1.0
  H  H202  1  0.57848000  0.59867000  0.89625000  1.0
  H  H203  1  0.64696000  0.53623000  0.07124000  1.0
  H  H204  1  0.60504000  0.50132000  0.11761000  1.0
  H  H205  1  0.81034000  0.54330000  0.00308000  1.0
  H  H206  1  0.87364000  0.52028000  0.98925000  1.0
  H  H207  1  0.03096000  0.43254000  0.59565000  1.0
  H  H208  1  0.21052000  0.40202000  0.57187000  1.0
  H  H209  1  0.08786000  0.45000000  0.47039000  1.0
  H  H210  1  0.97716000  0.41572000  0.49596000  1.0
  H  H211  1  0.96580000  0.39523000  0.55369000  1.0
  H  H212  1  0.11032000  0.47179000  0.61460000  1.0
  H  H213  1  0.13762000  0.43656000  0.66659000  1.0
  H  H214  1  0.20434000  0.49047000  0.46488000  1.0
  H  H215  1  0.26588000  0.45681000  0.49436000  1.0
  H  H216  1  0.76206000  0.94901000  0.54292000  1.0
  H  H217  1  0.58270000  0.91043000  0.55881000  1.0
  H  H218  1  0.70490000  0.83404000  0.65768000  1.0
  H  H219  1  0.81464000  0.82162000  0.62811000  1.0
  H  H220  1  0.82800000  0.86437000  0.57295000  1.0
  H  H221  1  0.60714000  0.02616000  0.48816000  1.0
  H  H222  1  0.61980000  0.99975000  0.54432000  1.0
  H  H223  1  0.55458000  0.82797000  0.69225000  1.0
  H  H224  1  0.57734000  0.88266000  0.66098000  1.0
  H  H225  1  0.26296000  0.48764000  0.10546000  1.0
  H  H226  1  0.10840000  0.43372000  0.08858000  1.0
  H  H227  1  0.11590000  0.45866000  0.19603000  1.0
  H  H228  1  0.26254000  0.46098000  0.23464000  1.0
  H  H229  1  0.23726000  0.42117000  0.22190000  1.0
  H  H230  1  0.22222000  0.52939000  0.02724000  1.0
  H  H231  1  0.24648000  0.50245000  0.99701000  1.0
  H  H232  1  0.01888000  0.48458000  0.10336000  1.0
  H  H233  1  0.97052000  0.44060000  0.12996000  1.0
  H  H234  1  0.99160000  0.52725000  0.55125000  1.0
  H  H235  1  0.01108000  0.59844000  0.54635000  1.0
  H  H236  1  0.02400000  0.51563000  0.70541000  1.0
  H  H237  1  0.98516000  0.48032000  0.66707000  1.0
  H  H238  1  0.05174000  0.63371000  0.58417000  1.0
  H  H239  1  0.36166000  0.04287000  0.55521000  1.0
  H  H240  1  0.39832000  0.11028000  0.54995000  1.0
  H  H241  1  0.42546000  0.16048000  0.39319000  1.0
  H  H242  1  0.37032000  0.09413000  0.43934000  1.0
  H  H243  1  0.45402000  0.17618000  0.50457000  1.0
  H  H244  1  0.79168000  0.58581000  0.92388000  1.0
  H  H245  1  0.80926000  0.54283000  0.88313000  1.0
  H  H246  1  0.01384000  0.59190000  0.86620000  1.0
  H  H247  1  0.94720000  0.59297000  0.92306000  1.0
  H  H248  1  0.87490000  0.54159000  0.82631000  1.0
  H  H249  1  0.22754000  0.46265000  0.41222000  1.0
  H  H250  1  0.26292000  0.37955000  0.45429000  1.0
  H  H251  1  0.45672000  0.44943000  0.41184000  1.0
  H  H252  1  0.36906000  0.49183000  0.41618000  1.0
  H  H253  1  0.35010000  0.33651000  0.45064000  1.0
  H  H254  1  0.91156000  0.88508000  0.58962000  1.0
  H  H255  1  0.89400000  0.79096000  0.69555000  1.0
  H  H256  1  0.02900000  0.76895000  0.59124000  1.0
  H  H257  1  0.96564000  0.83603000  0.56624000  1.0
  H  H258  1  0.95576000  0.72383000  0.72070000  1.0
  H  H259  1  0.31454000  0.43612000  0.16942000  1.0
  H  H260  1  0.32876000  0.36433000  0.24075000  1.0
  H  H261  1  0.47240000  0.45216000  0.26379000  1.0
  H  H262  1  0.40064000  0.48912000  0.20741000  1.0
  H  H263  1  0.39982000  0.32682000  0.29732000  1.0
  H  H264  1  0.49598000  0.54338000  0.96890000  1.0
  H  H265  1  0.50182000  0.53132000  0.89587000  1.0
  H  H266  1  0.36152000  0.65920000  0.85241000  1.0
  H  H267  1  0.42686000  0.63982000  0.91179000  1.0
  H  H268  1  0.43796000  0.55094000  0.83577000  1.0
  H  H269  1  0.88230000  0.43804000  0.54509000  1.0
  H  H270  1  0.85320000  0.36107000  0.56063000  1.0
  H  H271  1  0.81906000  0.43614000  0.40394000  1.0
  H  H272  1  0.87346000  0.47277000  0.43437000  1.0
  H  H273  1  0.79664000  0.32438000  0.53078000  1.0
  H  H274  1  0.48200000  0.89343000  0.64484000  1.0
  H  H275  1  0.41818000  0.84336000  0.70321000  1.0
  H  H276  1  0.43784000  0.74791000  0.63411000  1.0
  H  H277  1  0.49970000  0.81190000  0.60774000  1.0
  H  H278  1  0.35494000  0.78014000  0.72918000  1.0
  H  H279  1  0.01056000  0.49526000  0.16740000  1.0
  H  H280  1  0.02858000  0.42574000  0.23707000  1.0
  H  H281  1  0.81248000  0.41201000  0.24208000  1.0
  H  H282  1  0.86382000  0.46164000  0.17373000  1.0
  H  H283  1  0.97874000  0.37616000  0.30470000  1.0
  H  H284  1  0.64286000  0.61189000  0.59724000  1.0
  H  H285  1  0.61328000  0.55063000  0.67767000  1.0
  H  H286  1  0.41630000  0.60352000  0.61738000  1.0
  H  H287  1  0.50226000  0.61224000  0.56866000  1.0
  H  H288  1  0.52830000  0.53963000  0.72628000  1.0
  H  H289  1  0.97514000  0.12472000  0.59388000  1.0
  H  H290  1  0.87556000  0.12852000  0.57636000  1.0
  H  H291  1  0.92722000  0.25613000  0.43507000  1.0
  H  H292  1  0.00534000  0.21079000  0.48265000  1.0
  H  H293  1  0.79684000  0.17457000  0.52957000  1.0
  H  H294  1  0.66496000  0.44815000  0.55856000  1.0
  H  H295  1  0.68028000  0.46221000  0.48347000  1.0
  H  H296  1  0.61614000  0.30963000  0.53850000  1.0
  H  H297  1  0.63802000  0.33533000  0.58930000  1.0
  H  H298  1  0.65682000  0.43726000  0.43203000  1.0
  H  H299  1  0.02708000  0.89185000  0.59452000  1.0
  H  H300  1  0.07102000  0.84271000  0.67184000  1.0
  H  H301  1  0.18284000  0.77350000  0.59378000  1.0
  H  H302  1  0.13202000  0.84501000  0.55314000  1.0
  H  H303  1  0.12276000  0.77139000  0.71308000  1.0
  H  H304  1  0.73614000  0.48812000  0.11339000  1.0
  H  H305  1  0.66120000  0.51998000  0.18509000  1.0
  H  H306  1  0.68522000  0.35869000  0.24174000  1.0
  H  H307  1  0.70868000  0.40871000  0.16547000  1.0
  H  H308  1  0.63748000  0.47061000  0.26135000  1.0
  H  H309  1  0.20818000  0.47350000  0.58303000  1.0
  H  H310  1  0.17178000  0.54717000  0.57356000  1.0
  H  H311  1  0.26726000  0.50207000  0.71129000  1.0
  H  H312  1  0.26038000  0.44892000  0.68497000  1.0
  H  H313  1  0.17866000  0.60084000  0.59922000  1.0
  H  H314  1  0.71756000  0.02181000  0.53109000  1.0
  H  H315  1  0.67588000  0.07701000  0.55076000  1.0
  H  H316  1  0.65790000  0.17348000  0.39343000  1.0
  H  H317  1  0.67436000  0.09420000  0.42205000  1.0
  H  H318  1  0.66070000  0.15662000  0.52255000  1.0
  H  H319  1  0.12526000  0.52727000  0.01488000  1.0
  H  H320  1  0.17230000  0.59710000  0.95265000  1.0
  H  H321  1  0.16386000  0.51442000  0.87142000  1.0
  H  H322  1  0.14434000  0.47715000  0.94941000  1.0
  H  H323  1  0.19250000  0.63507000  0.87437000  1.0
  N  N324  1  0.97198000  0.51561000  0.58217000  1.0
  N  N325  1  0.34570000  0.05989000  0.52409000  1.0
  N  N326  1  0.83318000  0.57448000  0.93663000  1.0
  N  N327  1  0.25832000  0.46655000  0.43069000  1.0
  N  N328  1  0.89160000  0.85872000  0.61615000  1.0
  N  N329  1  0.31668000  0.45196000  0.18803000  1.0
  N  N330  1  0.50666000  0.57399000  0.94298000  1.0
  N  N331  1  0.90096000  0.44128000  0.51597000  1.0
  N  N332  1  0.50148000  0.86882000  0.63863000  1.0
  N  N333  1  0.97874000  0.47874000  0.16124000  1.0
  N  N334  1  0.61448000  0.59396000  0.59002000  1.0
  N  N335  1  0.99228000  0.14273000  0.56227000  1.0
  N  N336  1  0.67362000  0.41438000  0.57071000  1.0
  N  N337  1  0.07134000  0.89156000  0.58486000  1.0
  N  N338  1  0.69782000  0.49758000  0.12514000  1.0
  N  N339  1  0.20384000  0.46080000  0.61646000  1.0
  N  N340  1  0.69268000  0.03432000  0.50357000  1.0
  N  N341  1  0.15276000  0.51030000  0.00258000  1.0
  O  O342  1  0.88154000  0.49767000  0.62116000  1.0
  O  O343  1  0.74120000  0.39826000  0.62437000  1.0
  O  O344  1  0.67448000  0.53057000  0.62839000  1.0
  O  O345  1  0.25670000  0.04076000  0.56455000  1.0
  O  O346  1  0.09830000  0.96490000  0.54940000  1.0
  O  O347  1  0.05652000  0.08115000  0.58539000  1.0
  O  O348  1  0.59270000  0.53343000  0.94070000  1.0
  O  O349  1  0.64814000  0.46780000  0.08865000  1.0
  O  O350  1  0.79726000  0.50204000  0.97524000  1.0
  O  O351  1  0.99736000  0.45925000  0.51691000  1.0
  O  O352  1  0.13532000  0.40624000  0.62984000  1.0
  O  O353  1  0.19768000  0.42173000  0.49073000  1.0
  O  O354  1  0.79554000  0.88482000  0.61779000  1.0
  O  O355  1  0.65798000  0.97013000  0.50730000  1.0
  O  O356  1  0.59568000  0.83908000  0.63450000  1.0
  O  O357  1  0.22362000  0.48880000  0.17685000  1.0
  O  O358  1  0.21534000  0.46027000  0.05704000  1.0
  O  O359  1  0.05026000  0.42710000  0.15845000  1.0
  O  O360  1  0.60788000  0.38375000  0.41109000  1.0
  O  O361  1  0.57584000  0.31285000  0.39861000  1.0
  O  O362  1  0.73910000  0.32264000  0.46819000  1.0
  O  O363  1  0.51562000  0.38798000  0.33070000  1.0
  O  O364  1  0.64342000  0.33796000  0.31726000  1.0
  O  O365  1  0.79388000  0.36340000  0.40614000  1.0
  O  O366  1  0.62236000  0.39741000  0.32843000  1.0
  O  O367  1  0.48946000  0.23958000  0.43410000  1.0
  O  O368  1  0.47434000  0.32248000  0.34910000  1.0
  O  O369  1  0.46832000  0.23438000  0.37498000  1.0
  O  O370  1  0.62758000  0.31273000  0.46440000  1.0
  O  O371  1  0.70244000  0.32014000  0.39219000  1.0
  O  O372  1  0.50528000  0.38990000  0.39611000  1.0
  O  O373  1  0.75958000  0.25368000  0.47270000  1.0
  O  O374  1  0.65246000  0.24508000  0.39570000  1.0
  O  O375  1  0.45576000  0.32583000  0.42857000  1.0
  O  O376  1  0.66538000  0.23708000  0.46317000  1.0
  O  O377  1  0.80454000  0.35796000  0.32566000  1.0
  O  O378  1  0.82068000  0.27818000  0.41240000  1.0
  O  O379  1  0.89238000  0.34660000  0.35613000  1.0
  O  O380  1  0.19990000  0.69931000  0.66248000  1.0
  O  O381  1  0.13978000  0.62871000  0.72997000  1.0
  O  O382  1  0.30980000  0.71478000  0.72666000  1.0
  O  O383  1  0.09778000  0.63294000  0.64999000  1.0
  O  O384  1  0.21628000  0.56531000  0.72015000  1.0
  O  O385  1  0.37468000  0.68713000  0.69301000  1.0
  O  O386  1  0.19786000  0.62572000  0.65467000  1.0
  O  O387  1  0.03796000  0.58948000  0.79493000  1.0
  O  O388  1  0.05082000  0.58346000  0.71210000  1.0
  O  O389  1  0.95852000  0.57369000  0.77045000  1.0
  O  O390  1  0.20466000  0.71233000  0.72039000  1.0
  O  O391  1  0.26818000  0.63651000  0.72384000  1.0
  O  O392  1  0.08646000  0.70114000  0.65312000  1.0
  O  O393  1  0.31430000  0.64885000  0.79369000  1.0
  O  O394  1  0.20750000  0.57345000  0.80209000  1.0
  O  O395  1  0.02288000  0.66764000  0.71159000  1.0
  O  O396  1  0.20876000  0.64108000  0.79914000  1.0
  O  O397  1  0.37670000  0.60503000  0.68846000  1.0
  O  O398  1  0.37402000  0.60573000  0.77396000  1.0
  O  O399  1  0.42436000  0.55305000  0.74635000  1.0
  Zn  Zn400  1  0.56894000  0.36967000  0.37488000  1.0
  Zn  Zn401  1  0.50170000  0.29890000  0.40281000  1.0
  Zn  Zn402  1  0.69632000  0.29212000  0.44777000  1.0
  Zn  Zn403  1  0.77800000  0.32944000  0.38250000  1.0
  Zn  Zn404  1  0.64278000  0.30351000  0.37516000  1.0
  Zn  Zn405  1  0.14528000  0.65685000  0.67415000  1.0
  Zn  Zn406  1  0.06512000  0.61584000  0.73831000  1.0
  Zn  Zn407  1  0.25968000  0.66797000  0.75039000  1.0
  Zn  Zn408  1  0.34572000  0.63180000  0.72002000  1.0
  Zn  Zn409  1  0.20874000  0.60029000  0.74439000  1.0
