# generated using pymatgen
data_Zn5H135C162(N9O10)2
_symmetry_space_group_name_H-M   'P 1'
_cell_length_a   27.17240000
_cell_length_b   41.86760000
_cell_length_c   42.69271868
_cell_angle_alpha   61.25833302
_cell_angle_beta   86.20923342
_cell_angle_gamma   86.65000000
_symmetry_Int_Tables_number   1
_chemical_formula_structural   Zn5H135C162(N9O10)2
_chemical_formula_sum   'Zn10 H270 C324 N36 O40'
_cell_volume   42472.32866514
_cell_formula_units_Z   2
loop_
 _symmetry_equiv_pos_site_id
 _symmetry_equiv_pos_as_xyz
  1  'x, y, z'
loop_
 _atom_site_type_symbol
 _atom_site_label
 _atom_site_symmetry_multiplicity
 _atom_site_fract_x
 _atom_site_fract_y
 _atom_site_fract_z
 _atom_site_occupancy
  Zn  Zn0  1  0.65454000  0.36040000  0.35651000  1.0
  Zn  Zn1  1  0.58253000  0.31151000  0.38127000  1.0
  Zn  Zn2  1  0.75106000  0.30291000  0.42574000  1.0
  Zn  Zn3  1  0.81335000  0.31043000  0.37076000  1.0
  Zn  Zn4  1  0.69900000  0.29186000  0.37907000  1.0
  Zn  Zn5  1  0.17023000  0.65138000  0.67870000  1.0
  Zn  Zn6  1  0.11638000  0.63965000  0.73806000  1.0
  Zn  Zn7  1  0.25576000  0.68965000  0.72229000  1.0
  Zn  Zn8  1  0.34631000  0.65831000  0.72470000  1.0
  Zn  Zn9  1  0.23781000  0.62229000  0.73571000  1.0
  H  H10  1  0.35093000  0.14984000  0.37565000  1.0
  H  H11  1  0.25002000  0.11253000  0.37731000  1.0
  H  H12  1  0.20012000  0.13081000  0.39260000  1.0
  H  H13  1  0.25135000  0.15923000  0.36763000  1.0
  H  H14  1  0.59271000  0.50498000  0.11093000  1.0
  H  H15  1  0.77129000  0.52363000  0.07788000  1.0
  H  H16  1  0.74435000  0.49155000  0.14028000  1.0
  H  H17  1  0.55605000  0.50679000  0.05203000  1.0
  H  H18  1  0.54536000  0.56142000  0.05651000  1.0
  H  H19  1  0.07760000  0.40756000  0.46111000  1.0
  H  H20  1  0.13781000  0.39302000  0.45438000  1.0
  H  H21  1  0.08853000  0.36168000  0.46866000  1.0
  H  H22  1  0.03824000  0.36614000  0.11888000  1.0
  H  H23  1  0.15811000  0.31569000  0.21535000  1.0
  H  H24  1  0.07641000  0.29156000  0.22725000  1.0
  H  H25  1  0.13414000  0.35121000  0.08439000  1.0
  H  H26  1  0.09379000  0.38903000  0.05802000  1.0
  H  H27  1  0.15975000  0.39080000  0.04953000  1.0
  H  H28  1  0.09925000  0.43794000  0.10991000  1.0
  H  H29  1  0.12971000  0.45679000  0.06739000  1.0
  H  H30  1  0.07142000  0.43520000  0.07429000  1.0
  H  H31  1  0.21797000  0.29586000  0.19163000  1.0
  H  H32  1  0.30998000  0.48519000  0.06493000  1.0
  H  H33  1  0.33623000  0.30524000  0.24099000  1.0
  H  H34  1  0.38881000  0.40361000  0.12112000  1.0
  H  H35  1  0.44986000  0.36987000  0.16456000  1.0
  H  H36  1  0.28227000  0.28986000  0.19032000  1.0
  H  H37  1  0.25096000  0.28111000  0.23190000  1.0
  H  H38  1  0.25353000  0.37397000  0.21992000  1.0
  H  H39  1  0.19602000  0.35767000  0.21836000  1.0
  H  H40  1  0.24053000  0.32696000  0.24943000  1.0
  H  H41  1  0.36406000  0.38254000  0.08718000  1.0
  H  H42  1  0.34260000  0.45206000  0.10135000  1.0
  H  H43  1  0.46607000  0.10246000  0.36872000  1.0
  H  H44  1  0.50765000  0.09982000  0.42156000  1.0
  H  H45  1  0.54734000  0.13915000  0.43997000  1.0
  H  H46  1  0.53932000  0.19866000  0.44210000  1.0
  H  H47  1  0.46790000  0.36965000  0.37475000  1.0
  H  H48  1  0.55641000  0.41543000  0.40063000  1.0
  H  H49  1  0.42005000  0.28889000  0.25242000  1.0
  H  H50  1  0.41829000  0.32330000  0.28714000  1.0
  H  H51  1  0.47451000  0.35224000  0.30842000  1.0
  H  H52  1  0.52114000  0.34194000  0.19918000  1.0
  H  H53  1  0.57552000  0.37266000  0.21919000  1.0
  H  H54  1  0.57729000  0.40598000  0.25827000  1.0
  H  H55  1  0.89962000  0.41012000  0.43517000  1.0
  H  H56  1  0.89502000  0.37996000  0.39520000  1.0
  H  H57  1  0.01117000  0.28230000  0.18921000  1.0
  H  H58  1  0.99207000  0.26658000  0.25095000  1.0
  H  H59  1  0.92921000  0.27429000  0.29061000  1.0
  H  H60  1  0.94296000  0.36766000  0.16268000  1.0
  H  H61  1  0.88024000  0.37598000  0.20264000  1.0
  H  H62  1  0.82725000  0.34219000  0.25836000  1.0
  H  H63  1  0.82239000  0.41792000  0.48349000  1.0
  H  H64  1  0.80222000  0.42756000  0.42418000  1.0
  H  H65  1  0.73272000  0.42596000  0.38662000  1.0
  H  H66  1  0.65344000  0.50096000  0.17460000  1.0
  H  H67  1  0.71216000  0.46888000  0.21824000  1.0
  H  H68  1  0.74096000  0.40922000  0.26490000  1.0
  H  H69  1  0.63900000  0.41662000  0.16923000  1.0
  H  H70  1  0.66773000  0.35676000  0.21613000  1.0
  H  H71  1  0.72168000  0.32139000  0.26895000  1.0
  H  H72  1  0.74735000  0.15440000  0.51635000  1.0
  H  H73  1  0.17827000  0.16302000  0.41812000  1.0
  H  H74  1  0.11244000  0.20008000  0.42635000  1.0
  H  H75  1  0.43972000  0.05035000  0.42249000  1.0
  H  H76  1  0.28302000  0.17660000  0.40748000  1.0
  H  H77  1  0.59797000  0.58494000  0.05739000  1.0
  H  H78  1  0.27382000  0.36906000  0.43259000  1.0
  H  H79  1  0.21613000  0.50165000  0.43459000  1.0
  H  H80  1  0.42532000  0.19275000  0.34497000  1.0
  H  H81  1  0.46328000  0.23185000  0.36404000  1.0
  H  H82  1  0.33753000  0.45338000  0.38367000  1.0
  H  H83  1  0.37946000  0.38266000  0.37602000  1.0
  H  H84  1  0.92712000  0.25788000  0.41739000  1.0
  H  H85  1  0.77033000  0.09914000  0.51174000  1.0
  H  H86  1  0.02739000  0.32985000  0.52183000  1.0
  H  H87  1  0.40023000  0.43460000  0.43991000  1.0
  H  H88  1  0.48870000  0.42030000  0.44008000  1.0
  H  H89  1  0.92716000  0.39792000  0.49347000  1.0
  H  H90  1  0.97378000  0.13289000  0.50955000  1.0
  H  H91  1  0.88669000  0.14953000  0.49762000  1.0
  H  H92  1  0.83013000  0.20134000  0.48345000  1.0
  H  H93  1  0.68277000  0.20607000  0.50183000  1.0
  H  H94  1  0.58983000  0.56739000  0.57230000  1.0
  H  H95  1  0.74050000  0.62467000  0.57965000  1.0
  H  H96  1  0.66032000  0.65362000  0.57861000  1.0
  H  H97  1  0.66010000  0.50046000  0.62809000  1.0
  H  H98  1  0.62019000  0.49220000  0.60105000  1.0
  H  H99  1  0.68129000  0.47126000  0.61092000  1.0
  H  H100  1  0.66515000  0.56470000  0.51334000  1.0
  H  H101  1  0.67572000  0.51860000  0.52457000  1.0
  H  H102  1  0.61796000  0.53255000  0.53815000  1.0
  H  H103  1  0.78854000  0.58521000  0.61925000  1.0
  H  H104  1  0.84809000  0.50273000  0.49326000  1.0
  H  H105  1  0.92719000  0.61968000  0.57220000  1.0
  H  H106  1  0.93920000  0.51555000  0.54673000  1.0
  H  H107  1  0.01324000  0.54494000  0.54649000  1.0
  H  H108  1  0.84553000  0.56064000  0.62987000  1.0
  H  H109  1  0.84469000  0.60934000  0.61134000  1.0
  H  H110  1  0.84808000  0.63597000  0.51722000  1.0
  H  H111  1  0.78600000  0.63358000  0.53212000  1.0
  H  H112  1  0.83055000  0.65054000  0.54972000  1.0
  H  H113  1  0.90247000  0.47143000  0.59244000  1.0
  H  H114  1  0.84696000  0.41805000  0.54297000  1.0
  H  H115  1  0.68150000  0.46198000  0.56543000  1.0
  H  H116  1  0.85934000  0.43691000  0.60671000  1.0
  H  H117  1  0.68909000  0.40789000  0.55805000  1.0
  H  H118  1  0.90798000  0.43980000  0.57494000  1.0
  H  H119  1  0.88822000  0.52546000  0.50594000  1.0
  H  H120  1  0.90490000  0.48014000  0.51289000  1.0
  H  H121  1  0.05669000  0.10599000  0.52015000  1.0
  H  H122  1  0.16096000  0.07298000  0.55505000  1.0
  H  H123  1  0.10047000  0.05418000  0.56755000  1.0
  H  H124  1  0.15434000  0.02539000  0.57407000  1.0
  H  H125  1  0.07547000  0.04879000  0.48790000  1.0
  H  H126  1  0.10747000  0.00834000  0.51646000  1.0
  H  H127  1  0.06224000  0.02865000  0.53520000  1.0
  H  H128  1  0.24470000  0.15472000  0.44789000  1.0
  H  H129  1  0.27919000  0.94956000  0.50224000  1.0
  H  H130  1  0.37332000  0.01955000  0.46551000  1.0
  H  H131  1  0.30812000  0.14405000  0.44928000  1.0
  H  H132  1  0.36006000  0.02063000  0.51606000  1.0
  H  H133  1  0.30474000  0.92113000  0.58210000  1.0
  H  H134  1  0.13629000  0.97752000  0.56878000  1.0
  H  H135  1  0.32476000  0.00584000  0.55659000  1.0
  H  H136  1  0.15234000  0.91726000  0.61872000  1.0
  H  H137  1  0.36274000  0.97332000  0.54908000  1.0
  H  H138  1  0.31077000  0.98759000  0.46947000  1.0
  H  H139  1  0.34320000  0.95322000  0.50747000  1.0
  H  H140  1  0.31999000  0.46475000  0.43474000  1.0
  H  H141  1  0.20647000  0.36220000  0.47554000  1.0
  H  H142  1  0.30499000  0.42823000  0.52209000  1.0
  H  H143  1  0.31750000  0.47585000  0.49651000  1.0
  H  H144  1  0.27473000  0.45861000  0.53495000  1.0
  H  H145  1  0.21542000  0.51817000  0.46555000  1.0
  H  H146  1  0.27310000  0.51420000  0.44424000  1.0
  H  H147  1  0.18038000  0.33578000  0.53038000  1.0
  H  H148  1  0.05173000  0.50760000  0.52238000  1.0
  H  H149  1  0.01050000  0.41344000  0.57415000  1.0
  H  H150  1  0.94132000  0.37776000  0.57805000  1.0
  H  H151  1  0.12874000  0.31926000  0.56013000  1.0
  H  H152  1  0.13123000  0.31566000  0.51980000  1.0
  H  H153  1  0.07159000  0.40564000  0.60705000  1.0
  H  H154  1  0.08772000  0.51307000  0.58386000  1.0
  H  H155  1  0.24197000  0.51268000  0.51489000  1.0
  H  H156  1  0.12205000  0.42501000  0.61507000  1.0
  H  H157  1  0.22862000  0.55796000  0.53485000  1.0
  H  H158  1  0.06103000  0.44395000  0.61528000  1.0
  H  H159  1  0.03006000  0.46667000  0.52763000  1.0
  H  H160  1  0.01653000  0.47888000  0.56252000  1.0
  H  H161  1  0.53719000  0.88926000  0.64413000  1.0
  H  H162  1  0.67972000  0.80215000  0.69037000  1.0
  H  H163  1  0.60255000  0.89558000  0.57589000  1.0
  H  H164  1  0.57193000  0.93730000  0.56941000  1.0
  H  H165  1  0.63349000  0.93660000  0.55080000  1.0
  H  H166  1  0.61917000  0.93807000  0.64817000  1.0
  H  H167  1  0.63089000  0.97311000  0.60410000  1.0
  H  H168  1  0.57137000  0.95274000  0.61651000  1.0
  H  H169  1  0.73614000  0.80387000  0.65206000  1.0
  H  H170  1  0.80434000  0.00287000  0.58835000  1.0
  H  H171  1  0.86327000  0.79946000  0.70624000  1.0
  H  H172  1  0.88961000  0.92454000  0.60647000  1.0
  H  H173  1  0.95771000  0.88988000  0.64306000  1.0
  H  H174  1  0.80012000  0.80446000  0.64253000  1.0
  H  H175  1  0.77743000  0.77747000  0.68785000  1.0
  H  H176  1  0.85955000  0.92845000  0.55882000  1.0
  H  H177  1  0.80725000  0.03391000  0.50587000  1.0
  H  H178  1  0.63718000  0.99009000  0.54737000  1.0
  H  H179  1  0.81507000  0.94737000  0.52563000  1.0
  H  H180  1  0.64954000  0.04937000  0.49573000  1.0
  H  H181  1  0.86168000  0.97590000  0.52610000  1.0
  H  H182  1  0.83627000  0.96150000  0.61425000  1.0
  H  H183  1  0.86286000  0.99420000  0.57145000  1.0
  H  H184  1  0.05124000  0.59141000  0.55017000  1.0
  H  H185  1  0.03581000  0.53716000  0.62022000  1.0
  H  H186  1  0.05198000  0.53006000  0.67941000  1.0
  H  H187  1  0.02661000  0.65380000  0.57679000  1.0
  H  H188  1  0.04330000  0.64687000  0.63558000  1.0
  H  H189  1  0.03594000  0.56482000  0.71814000  1.0
  H  H190  1  0.02088000  0.84329000  0.64446000  1.0
  H  H191  1  0.06838000  0.80350000  0.62544000  1.0
  H  H192  1  0.07119000  0.74316000  0.62669000  1.0
  H  H193  1  0.94668000  0.30352000  0.56744000  1.0
  H  H194  1  0.90412000  0.28317000  0.53460000  1.0
  H  H195  1  0.87488000  0.29572000  0.47680000  1.0
  H  H196  1  0.47178000  0.85444000  0.63791000  1.0
  H  H197  1  0.40340000  0.82862000  0.62383000  1.0
  H  H198  1  0.33186000  0.78979000  0.65719000  1.0
  H  H199  1  0.57795000  0.66044000  0.55528000  1.0
  H  H200  1  0.57441000  0.66492000  0.61074000  1.0
  H  H201  1  0.51874000  0.65361000  0.66257000  1.0
  H  H202  1  0.50763000  0.57912000  0.60154000  1.0
  H  H203  1  0.45220000  0.56746000  0.65374000  1.0
  H  H204  1  0.06602000  0.20338000  0.47607000  1.0
  H  H205  1  0.01382000  0.24037000  0.42812000  1.0
  H  H206  1  0.75166000  0.35672000  0.56619000  1.0
  H  H207  1  0.69378000  0.35272000  0.53000000  1.0
  H  H208  1  0.67364000  0.36248000  0.47091000  1.0
  H  H209  1  0.27574000  0.88029000  0.64375000  1.0
  H  H210  1  0.29405000  0.86091000  0.59250000  1.0
  H  H211  1  0.28791000  0.80405000  0.59019000  1.0
  H  H212  1  0.17170000  0.83076000  0.66982000  1.0
  H  H213  1  0.16538000  0.77369000  0.66757000  1.0
  H  H214  1  0.23605000  0.75130000  0.60376000  1.0
  H  H215  1  0.15183000  0.59236000  0.54667000  1.0
  H  H216  1  0.21882000  0.61230000  0.56376000  1.0
  H  H217  1  0.26247000  0.61106000  0.61298000  1.0
  H  H218  1  0.14181000  0.51593000  0.63895000  1.0
  H  H219  1  0.77268000  0.08395000  0.45541000  1.0
  H  H220  1  0.66596000  0.13042000  0.42939000  1.0
  H  H221  1  0.64356000  0.18628000  0.43353000  1.0
  H  H222  1  0.33375000  0.39164000  0.04855000  1.0
  H  H223  1  0.59734000  0.78277000  0.71571000  1.0
  H  H224  1  0.49570000  0.84741000  0.70081000  1.0
  H  H225  1  0.15864000  0.45020000  0.02286000  1.0
  H  H226  1  0.89115000  0.60274000  0.97994000  1.0
  H  H227  1  0.77025000  0.65147000  0.88418000  1.0
  H  H228  1  0.85303000  0.67433000  0.87092000  1.0
  H  H229  1  0.82664000  0.53119000  0.99194000  1.0
  H  H230  1  0.85543000  0.53414000  0.02710000  1.0
  H  H231  1  0.79579000  0.51417000  0.03420000  1.0
  H  H232  1  0.79923000  0.62106000  0.01358000  1.0
  H  H233  1  0.77192000  0.58320000  0.04955000  1.0
  H  H234  1  0.83772000  0.58238000  0.04086000  1.0
  H  H235  1  0.72680000  0.61095000  0.88301000  1.0
  H  H236  1  0.59038000  0.67002000  0.86236000  1.0
  H  H237  1  0.53615000  0.57841000  0.98496000  1.0
  H  H238  1  0.47548000  0.61736000  0.94308000  1.0
  H  H239  1  0.66779000  0.59409000  0.88582000  1.0
  H  H240  1  0.68028000  0.64034000  0.85312000  1.0
  H  H241  1  0.65043000  0.68471000  0.90684000  1.0
  H  H242  1  0.71382000  0.67436000  0.90837000  1.0
  H  H243  1  0.68306000  0.68863000  0.86728000  1.0
  H  H244  1  0.57505000  0.52674000  0.00527000  1.0
  H  H245  1  0.61332000  0.49324000  0.03761000  1.0
  H  H246  1  0.57121000  0.59871000  0.01644000  1.0
  H  H247  1  0.77424000  0.84998000  0.71385000  1.0
  H  H248  1  0.71941000  0.83063000  0.71215000  1.0
  H  H249  1  0.77368000  0.80196000  0.72841000  1.0
  H  H250  1  0.33700000  0.47435000  0.99394000  1.0
  H  H251  1  0.18738000  0.48454000  0.96111000  1.0
  H  H252  1  0.38285000  0.42031000  0.04497000  1.0
  H  H253  1  0.37050000  0.47044000  0.05668000  1.0
  H  H254  1  0.91926000  0.68517000  0.90615000  1.0
  H  H255  1  0.94279000  0.69587000  0.84684000  1.0
  H  H256  1  0.00649000  0.68258000  0.81140000  1.0
  H  H257  1  0.98249000  0.59659000  0.94088000  1.0
  H  H258  1  0.04554000  0.58224000  0.90504000  1.0
  H  H259  1  0.10173000  0.60960000  0.85027000  1.0
  H  H260  1  0.97912000  0.84031000  0.70159000  1.0
  H  H261  1  0.95049000  0.74971000  0.73024000  1.0
  H  H262  1  0.99808000  0.70966000  0.71117000  1.0
  H  H263  1  0.48084000  0.68827000  0.89219000  1.0
  H  H264  1  0.40569000  0.65198000  0.90949000  1.0
  H  H265  1  0.33268000  0.65206000  0.87887000  1.0
  H  H266  1  0.49594000  0.67752000  0.81410000  1.0
  H  H267  1  0.42304000  0.67791000  0.78325000  1.0
  H  H268  1  0.29952000  0.68813000  0.81759000  1.0
  H  H269  1  0.48672000  0.75595000  0.73812000  1.0
  H  H270  1  0.41788000  0.73038000  0.72471000  1.0
  H  H271  1  0.43813000  0.57754000  0.70923000  1.0
  H  H272  1  0.18669000  0.51428000  0.68800000  1.0
  H  H273  1  0.26705000  0.54007000  0.70204000  1.0
  H  H274  1  0.32081000  0.50255000  0.93303000  1.0
  H  H275  1  0.28277000  0.56526000  0.92950000  1.0
  H  H276  1  0.24883000  0.62139000  0.87992000  1.0
  H  H277  1  0.22503000  0.50192000  0.88604000  1.0
  H  H278  1  0.19042000  0.55780000  0.83681000  1.0
  H  H279  1  0.19101000  0.64893000  0.82760000  1.0
  C  C280  1  0.24071000  0.13148000  0.38839000  1.0
  C  C281  1  0.66648000  0.49523000  0.13019000  1.0
  C  C282  1  0.63175000  0.50830000  0.10360000  1.0
  C  C283  1  0.64760000  0.52769000  0.06761000  1.0
  C  C284  1  0.73245000  0.51974000  0.08390000  1.0
  C  C285  1  0.71705000  0.50080000  0.12010000  1.0
  C  C286  1  0.10419000  0.38385000  0.47180000  1.0
  C  C287  1  0.31261000  0.43113000  0.06772000  1.0
  C  C288  1  0.27454000  0.41025000  0.09731000  1.0
  C  C289  1  0.22730000  0.41591000  0.08366000  1.0
  C  C290  1  0.35067000  0.40513000  0.06203000  1.0
  C  C291  1  0.33560000  0.46105000  0.07305000  1.0
  C  C292  1  0.05097000  0.32762000  0.17410000  1.0
  C  C293  1  0.06415000  0.35583000  0.14007000  1.0
  C  C294  1  0.11211000  0.36890000  0.13314000  1.0
  C  C295  1  0.14654000  0.35494000  0.15927000  1.0
  C  C296  1  0.13317000  0.32767000  0.19391000  1.0
  C  C297  1  0.13375000  0.39626000  0.09744000  1.0
  C  C298  1  0.18683000  0.39650000  0.10646000  1.0
  C  C299  1  0.19404000  0.37211000  0.14267000  1.0
  C  C300  1  0.13010000  0.38147000  0.07065000  1.0
  C  C301  1  0.10714000  0.43360000  0.08629000  1.0
  C  C302  1  0.08570000  0.31379000  0.20103000  1.0
  C  C303  1  0.39792000  0.33518000  0.20645000  1.0
  C  C304  1  0.34774000  0.32716000  0.21510000  1.0
  C  C305  1  0.31277000  0.34651000  0.18934000  1.0
  C  C306  1  0.32627000  0.37334000  0.15540000  1.0
  C  C307  1  0.37595000  0.38287000  0.14686000  1.0
  C  C308  1  0.41149000  0.36357000  0.17224000  1.0
  C  C309  1  0.25852000  0.33965000  0.19359000  1.0
  C  C310  1  0.24173000  0.36638000  0.15646000  1.0
  C  C311  1  0.25160000  0.29956000  0.20256000  1.0
  C  C312  1  0.23560000  0.34977000  0.22196000  1.0
  C  C313  1  0.28161000  0.38576000  0.13406000  1.0
  C  C314  1  0.83965000  0.34316000  0.40924000  1.0
  C  C315  1  0.54586000  0.24553000  0.39347000  1.0
  C  C316  1  0.69421000  0.24084000  0.44801000  1.0
  C  C317  1  0.82726000  0.24852000  0.43583000  1.0
  C  C318  1  0.56520000  0.37178000  0.39103000  1.0
  C  C319  1  0.86036000  0.31901000  0.30683000  1.0
  C  C320  1  0.71288000  0.37321000  0.40228000  1.0
  C  C321  1  0.70335000  0.33472000  0.30903000  1.0
  C  C322  1  0.58079000  0.36458000  0.31056000  1.0
  C  C323  1  0.46411000  0.14365000  0.38158000  1.0
  C  C324  1  0.52099000  0.15106000  0.41906000  1.0
  C  C325  1  0.49849000  0.12873000  0.40861000  1.0
  C  C326  1  0.50976000  0.18861000  0.40260000  1.0
  C  C327  1  0.38286000  0.40887000  0.40858000  1.0
  C  C328  1  0.46488000  0.41065000  0.42723000  1.0
  C  C329  1  0.41423000  0.41866000  0.42729000  1.0
  C  C330  1  0.45362000  0.38175000  0.39101000  1.0
  C  C331  1  0.40284000  0.38941000  0.39145000  1.0
  C  C332  1  0.48546000  0.39314000  0.40823000  1.0
  C  C333  1  0.46558000  0.33083000  0.24142000  1.0
  C  C334  1  0.48473000  0.35019000  0.28448000  1.0
  C  C335  1  0.45264000  0.33403000  0.27226000  1.0
  C  C336  1  0.54148000  0.36181000  0.23422000  1.0
  C  C337  1  0.51028000  0.34469000  0.22265000  1.0
  C  C338  1  0.52960000  0.36394000  0.26559000  1.0
  C  C339  1  0.90001000  0.38241000  0.45695000  1.0
  C  C340  1  0.88395000  0.35414000  0.45180000  1.0
  C  C341  1  0.97224000  0.31677000  0.20391000  1.0
  C  C342  1  0.93299000  0.29564000  0.26317000  1.0
  C  C343  1  0.96863000  0.29100000  0.24044000  1.0
  C  C344  1  0.90525000  0.35242000  0.21351000  1.0
  C  C345  1  0.94085000  0.34775000  0.19079000  1.0
  C  C346  1  0.90078000  0.32641000  0.24983000  1.0
  C  C347  1  0.89965000  0.20484000  0.45657000  1.0
  C  C348  1  0.77852000  0.41115000  0.44722000  1.0
  C  C349  1  0.73761000  0.39468000  0.44335000  1.0
  C  C350  1  0.67288000  0.44708000  0.19051000  1.0
  C  C351  1  0.71873000  0.41053000  0.24416000  1.0
  C  C352  1  0.70281000  0.44456000  0.21732000  1.0
  C  C353  1  0.67820000  0.38120000  0.21639000  1.0
  C  C354  1  0.66195000  0.41519000  0.18970000  1.0
  C  C355  1  0.70460000  0.37848000  0.24475000  1.0
  C  C356  1  0.72894000  0.14904000  0.49768000  1.0
  C  C357  1  0.40053000  0.10252000  0.39618000  1.0
  C  C358  1  0.35582000  0.12145000  0.39531000  1.0
  C  C359  1  0.31756000  0.10324000  0.42020000  1.0
  C  C360  1  0.40557000  0.06540000  0.42163000  1.0
  C  C361  1  0.26791000  0.11947000  0.42327000  1.0
  C  C362  1  0.69693000  0.53412000  0.05760000  1.0
  C  C363  1  0.30205000  0.41718000  0.43061000  1.0
  C  C364  1  0.26993000  0.38797000  0.44322000  1.0
  C  C365  1  0.47455000  0.20334000  0.37605000  1.0
  C  C366  1  0.45228000  0.18103000  0.36546000  1.0
  C  C367  1  0.93643000  0.22986000  0.43606000  1.0
  C  C368  1  0.91636000  0.37531000  0.49009000  1.0
  C  C369  1  0.91426000  0.16916000  0.48130000  1.0
  C  C370  1  0.96400000  0.15956000  0.48809000  1.0
  C  C371  1  0.69424000  0.17443000  0.47508000  1.0
  C  C372  1  0.76854000  0.40944000  0.54945000  1.0
  C  C373  1  0.81088000  0.42790000  0.54755000  1.0
  C  C374  1  0.80617000  0.45882000  0.55218000  1.0
  C  C375  1  0.76065000  0.47188000  0.55826000  1.0
  C  C376  1  0.71784000  0.45344000  0.56049000  1.0
  C  C377  1  0.72201000  0.42222000  0.55617000  1.0
  C  C378  1  0.84780000  0.48099000  0.55185000  1.0
  C  C379  1  0.81983000  0.50957000  0.55883000  1.0
  C  C380  1  0.76883000  0.50434000  0.56225000  1.0
  C  C381  1  0.88160000  0.45620000  0.58288000  1.0
  C  C382  1  0.87408000  0.49817000  0.51421000  1.0
  C  C383  1  0.61912000  0.61240000  0.57581000  1.0
  C  C384  1  0.62265000  0.57939000  0.57474000  1.0
  C  C385  1  0.66930000  0.56340000  0.57435000  1.0
  C  C386  1  0.71198000  0.57909000  0.57562000  1.0
  C  C387  1  0.70883000  0.61131000  0.57834000  1.0
  C  C388  1  0.67984000  0.52991000  0.57027000  1.0
  C  C389  1  0.73586000  0.52872000  0.56815000  1.0
  C  C390  1  0.75447000  0.55754000  0.57141000  1.0
  C  C391  1  0.65913000  0.49657000  0.60412000  1.0
  C  C392  1  0.65845000  0.53639000  0.53488000  1.0
  C  C393  1  0.66246000  0.62797000  0.57809000  1.0
  C  C394  1  0.97595000  0.58375000  0.56023000  1.0
  C  C395  1  0.92976000  0.59660000  0.56719000  1.0
  C  C396  1  0.88699000  0.57957000  0.56696000  1.0
  C  C397  1  0.88927000  0.55026000  0.56038000  1.0
  C  C398  1  0.93508000  0.53767000  0.55273000  1.0
  C  C399  1  0.97803000  0.55458000  0.55254000  1.0
  C  C400  1  0.83469000  0.59069000  0.57204000  1.0
  C  C401  1  0.80617000  0.56242000  0.56863000  1.0
  C  C402  1  0.82765000  0.58654000  0.61004000  1.0
  C  C403  1  0.82397000  0.62976000  0.54146000  1.0
  C  C404  1  0.83849000  0.53873000  0.56205000  1.0
  C  C405  1  0.22957000  0.91476000  0.60418000  1.0
  C  C406  1  0.26782000  0.93316000  0.57906000  1.0
  C  C407  1  0.25796000  0.96750000  0.55014000  1.0
  C  C408  1  0.21206000  0.98462000  0.54651000  1.0
  C  C409  1  0.17301000  0.96603000  0.57070000  1.0
  C  C410  1  0.18203000  0.93114000  0.59944000  1.0
  C  C411  1  0.29379000  0.98971000  0.52012000  1.0
  C  C412  1  0.26258000  0.02385000  0.49871000  1.0
  C  C413  1  0.21514000  0.02117000  0.51480000  1.0
  C  C414  1  0.33798000  0.99782000  0.53604000  1.0
  C  C415  1  0.30791000  0.96908000  0.49868000  1.0
  C  C416  1  0.07942000  0.15574000  0.47367000  1.0
  C  C417  1  0.08224000  0.11812000  0.49722000  1.0
  C  C418  1  0.12130000  0.09703000  0.49282000  1.0
  C  C419  1  0.15689000  0.11248000  0.46555000  1.0
  C  C420  1  0.15231000  0.14955000  0.44017000  1.0
  C  C421  1  0.13260000  0.05731000  0.51748000  1.0
  C  C422  1  0.18211000  0.05201000  0.50153000  1.0
  C  C423  1  0.19627000  0.08457000  0.47133000  1.0
  C  C424  1  0.13726000  0.05185000  0.55569000  1.0
  C  C425  1  0.09236000  0.03436000  0.51446000  1.0
  C  C426  1  0.11390000  0.17104000  0.44456000  1.0
  C  C427  1  0.32285000  0.06713000  0.44582000  1.0
  C  C428  1  0.36701000  0.04764000  0.44649000  1.0
  C  C429  1  0.24385000  0.08696000  0.45461000  1.0
  C  C430  1  0.27586000  0.15052000  0.43222000  1.0
  C  C431  1  0.27654000  0.05662000  0.46801000  1.0
  C  C432  1  0.15753000  0.53838000  0.56132000  1.0
  C  C433  1  0.12170000  0.51251000  0.56936000  1.0
  C  C434  1  0.12926000  0.48696000  0.55710000  1.0
  C  C435  1  0.17155000  0.48635000  0.53752000  1.0
  C  C436  1  0.20842000  0.51161000  0.53003000  1.0
  C  C437  1  0.20100000  0.53774000  0.54167000  1.0
  C  C438  1  0.09336000  0.45900000  0.56149000  1.0
  C  C439  1  0.12135000  0.44104000  0.54187000  1.0
  C  C440  1  0.16694000  0.45724000  0.52773000  1.0
  C  C441  1  0.08613000  0.43192000  0.60183000  1.0
  C  C442  1  0.04524000  0.47881000  0.54280000  1.0
  C  C443  1  0.29603000  0.44183000  0.44427000  1.0
  C  C444  1  0.25724000  0.43754000  0.46909000  1.0
  C  C445  1  0.22349000  0.41043000  0.47956000  1.0
  C  C446  1  0.23066000  0.38439000  0.46768000  1.0
  C  C447  1  0.24578000  0.46134000  0.48617000  1.0
  C  C448  1  0.19821000  0.44524000  0.50724000  1.0
  C  C449  1  0.18457000  0.41597000  0.50257000  1.0
  C  C450  1  0.28789000  0.45614000  0.51111000  1.0
  C  C451  1  0.23736000  0.50107000  0.45629000  1.0
  C  C452  1  0.97903000  0.35163000  0.55000000  1.0
  C  C453  1  0.02388000  0.34816000  0.53317000  1.0
  C  C454  1  0.06354000  0.36951000  0.53042000  1.0
  C  C455  1  0.05983000  0.39313000  0.54460000  1.0
  C  C456  1  0.01569000  0.39585000  0.56240000  1.0
  C  C457  1  0.97555000  0.37523000  0.56479000  1.0
  C  C458  1  0.11291000  0.37112000  0.51158000  1.0
  C  C459  1  0.13792000  0.39998000  0.51637000  1.0
  C  C460  1  0.13990000  0.33352000  0.53116000  1.0
  C  C461  1  0.10655000  0.41262000  0.53579000  1.0
  C  C462  1  0.72912000  0.04612000  0.49695000  1.0
  C  C463  1  0.77014000  0.02437000  0.51492000  1.0
  C  C464  1  0.76258000  0.99013000  0.54471000  1.0
  C  C465  1  0.71575000  0.97703000  0.55673000  1.0
  C  C466  1  0.67444000  0.99860000  0.53921000  1.0
  C  C467  1  0.68137000  0.03302000  0.50947000  1.0
  C  C468  1  0.80197000  0.96384000  0.56728000  1.0
  C  C469  1  0.77120000  0.93192000  0.59354000  1.0
  C  C470  1  0.72080000  0.93995000  0.58731000  1.0
  C  C471  1  0.83680000  0.95328000  0.54336000  1.0
  C  C472  1  0.82811000  0.98135000  0.58626000  1.0
  C  C473  1  0.56138000  0.83452000  0.68197000  1.0
  C  C474  1  0.56818000  0.87008000  0.65384000  1.0
  C  C475  1  0.61579000  0.88095000  0.63940000  1.0
  C  C476  1  0.65643000  0.85790000  0.65288000  1.0
  C  C477  1  0.64979000  0.82162000  0.67950000  1.0
  C  C478  1  0.62956000  0.91763000  0.60930000  1.0
  C  C479  1  0.68541000  0.91360000  0.60854000  1.0
  C  C480  1  0.70095000  0.87883000  0.63465000  1.0
  C  C481  1  0.60819000  0.92238000  0.57446000  1.0
  C  C482  1  0.61172000  0.94721000  0.61972000  1.0
  C  C483  1  0.60221000  0.81017000  0.69395000  1.0
  C  C484  1  0.91567000  0.84184000  0.67700000  1.0
  C  C485  1  0.86908000  0.82650000  0.68409000  1.0
  C  C486  1  0.82958000  0.84728000  0.66348000  1.0
  C  C487  1  0.83570000  0.88223000  0.63559000  1.0
  C  C488  1  0.88249000  0.89758000  0.62764000  1.0
  C  C489  1  0.92208000  0.87749000  0.64862000  1.0
  C  C490  1  0.77660000  0.83649000  0.66987000  1.0
  C  C491  1  0.75187000  0.87077000  0.64138000  1.0
  C  C492  1  0.77198000  0.80369000  0.66303000  1.0
  C  C493  1  0.78673000  0.89733000  0.62118000  1.0
  C  C494  1  0.09024000  0.70021000  0.67502000  1.0
  C  C495  1  0.21459000  0.71724000  0.65622000  1.0
  C  C496  1  0.02952000  0.59612000  0.59439000  1.0
  C  C497  1  0.04669000  0.55710000  0.65706000  1.0
  C  C498  1  0.03734000  0.56114000  0.62352000  1.0
  C  C499  1  0.04236000  0.62276000  0.63240000  1.0
  C  C500  1  0.03236000  0.62677000  0.59906000  1.0
  C  C501  1  0.04984000  0.58787000  0.66164000  1.0
  C  C502  1  0.98202000  0.79931000  0.68865000  1.0
  C  C503  1  0.04277000  0.79155000  0.64839000  1.0
  C  C504  1  0.01560000  0.81419000  0.65908000  1.0
  C  C505  1  0.03757000  0.75368000  0.66729000  1.0
  C  C506  1  0.91991000  0.33925000  0.51826000  1.0
  C  C507  1  0.88541000  0.31831000  0.48029000  1.0
  C  C508  1  0.90301000  0.31103000  0.51315000  1.0
  C  C509  1  0.48456000  0.80684000  0.68901000  1.0
  C  C510  1  0.42285000  0.81190000  0.64809000  1.0
  C  C511  1  0.46184000  0.82664000  0.65612000  1.0
  C  C512  1  0.40569000  0.77730000  0.67270000  1.0
  C  C513  1  0.54473000  0.62296000  0.60224000  1.0
  C  C514  1  0.51595000  0.63730000  0.64936000  1.0
  C  C515  1  0.54804000  0.64346000  0.62015000  1.0
  C  C516  1  0.47897000  0.58864000  0.64457000  1.0
  C  C517  1  0.51061000  0.59512000  0.61506000  1.0
  C  C518  1  0.48029000  0.61043000  0.66120000  1.0
  C  C519  1  0.00031000  0.18533000  0.46982000  1.0
  C  C520  1  0.98633000  0.21997000  0.44239000  1.0
  C  C521  1  0.76001000  0.38425000  0.51123000  1.0
  C  C522  1  0.70663000  0.37421000  0.47345000  1.0
  C  C523  1  0.71777000  0.36899000  0.50709000  1.0
  C  C524  1  0.78996000  0.40566000  0.48093000  1.0
  C  C525  1  0.23300000  0.85014000  0.63127000  1.0
  C  C526  1  0.26221000  0.80975000  0.60751000  1.0
  C  C527  1  0.26536000  0.84237000  0.60855000  1.0
  C  C528  1  0.19415000  0.79219000  0.65152000  1.0
  C  C529  1  0.19697000  0.82507000  0.65229000  1.0
  C  C530  1  0.22794000  0.78378000  0.62989000  1.0
  C  C531  1  0.17714000  0.56406000  0.59771000  1.0
  C  C532  1  0.23684000  0.58989000  0.61865000  1.0
  C  C533  1  0.21205000  0.59050000  0.59071000  1.0
  C  C534  1  0.19439000  0.53533000  0.66082000  1.0
  C  C535  1  0.16893000  0.53627000  0.63297000  1.0
  C  C536  1  0.22756000  0.56260000  0.65393000  1.0
  C  C537  1  0.71924000  0.11058000  0.47051000  1.0
  C  C538  1  0.74191000  0.11762000  0.49512000  1.0
  C  C539  1  0.67088000  0.16719000  0.45088000  1.0
  C  C540  1  0.68335000  0.13537000  0.44869000  1.0
  C  C541  1  0.23180000  0.44109000  0.04470000  1.0
  C  C542  1  0.61489000  0.54636000  0.03628000  1.0
  C  C543  1  0.65266000  0.56514000  0.00573000  1.0
  C  C544  1  0.70058000  0.55815000  0.01845000  1.0
  C  C545  1  0.58795000  0.51694000  0.03249000  1.0
  C  C546  1  0.58017000  0.57420000  0.04174000  1.0
  C  C547  1  0.87829000  0.63982000  0.92441000  1.0
  C  C548  1  0.86501000  0.61266000  0.95893000  1.0
  C  C549  1  0.81661000  0.60044000  0.96659000  1.0
  C  C550  1  0.78179000  0.61412000  0.94073000  1.0
  C  C551  1  0.79541000  0.63993000  0.90549000  1.0
  C  C552  1  0.79498000  0.57467000  0.00288000  1.0
  C  C553  1  0.74128000  0.57542000  0.99468000  1.0
  C  C554  1  0.73376000  0.59871000  0.95828000  1.0
  C  C555  1  0.81950000  0.53647000  0.01505000  1.0
  C  C556  1  0.80134000  0.59073000  0.02836000  1.0
  C  C557  1  0.84341000  0.65305000  0.89761000  1.0
  C  C558  1  0.52836000  0.64601000  0.89917000  1.0
  C  C559  1  0.57850000  0.64894000  0.88864000  1.0
  C  C560  1  0.61349000  0.62751000  0.91359000  1.0
  C  C561  1  0.59970000  0.60263000  0.94832000  1.0
  C  C562  1  0.54929000  0.59735000  0.95851000  1.0
  C  C563  1  0.51389000  0.61948000  0.93409000  1.0
  C  C564  1  0.66837000  0.63176000  0.90812000  1.0
  C  C565  1  0.68538000  0.60561000  0.94534000  1.0
  C  C566  1  0.68717000  0.61888000  0.88092000  1.0
  C  C567  1  0.67995000  0.67187000  0.89685000  1.0
  C  C568  1  0.64506000  0.58869000  0.96884000  1.0
  C  C569  1  0.75972000  0.82912000  0.70808000  1.0
  C  C570  1  0.26439000  0.48269000  0.97262000  1.0
  C  C571  1  0.29789000  0.46985000  0.00018000  1.0
  C  C572  1  0.28097000  0.44919000  0.03577000  1.0
  C  C573  1  0.19736000  0.45525000  0.01767000  1.0
  C  C574  1  0.21385000  0.47558000  0.98180000  1.0
  C  C575  1  0.33857000  0.73416000  0.68655000  1.0
  C  C576  1  0.07140000  0.63275000  0.80077000  1.0
  C  C577  1  0.21670000  0.63449000  0.78936000  1.0
  C  C578  1  0.32086000  0.67409000  0.77863000  1.0
  C  C579  1  0.41891000  0.63172000  0.69277000  1.0
  C  C580  1  0.23682000  0.59070000  0.69153000  1.0
  C  C581  1  0.08832000  0.60455000  0.70176000  1.0
  C  C582  1  0.95787000  0.64702000  0.89645000  1.0
  C  C583  1  0.00040000  0.66269000  0.83922000  1.0
  C  C584  1  0.96434000  0.67061000  0.85954000  1.0
  C  C585  1  0.02263000  0.60678000  0.89205000  1.0
  C  C586  1  0.98681000  0.61486000  0.91242000  1.0
  C  C587  1  0.02990000  0.63056000  0.85532000  1.0
  C  C588  1  0.00385000  0.73869000  0.69682000  1.0
  C  C589  1  0.97628000  0.76147000  0.70741000  1.0
  C  C590  1  0.45632000  0.66458000  0.86404000  1.0
  C  C591  1  0.36850000  0.65599000  0.86501000  1.0
  C  C592  1  0.41020000  0.65576000  0.88255000  1.0
  C  C593  1  0.41899000  0.67031000  0.81130000  1.0
  C  C594  1  0.46078000  0.67018000  0.82887000  1.0
  C  C595  1  0.37204000  0.66477000  0.82883000  1.0
  C  C596  1  0.43093000  0.75654000  0.70448000  1.0
  C  C597  1  0.47013000  0.77125000  0.71241000  1.0
  C  C598  1  0.25619000  0.52961000  0.91124000  1.0
  C  C599  1  0.24268000  0.59532000  0.88150000  1.0
  C  C600  1  0.26178000  0.56346000  0.90973000  1.0
  C  C601  1  0.21040000  0.55971000  0.85694000  1.0
  C  C602  1  0.22946000  0.52788000  0.88517000  1.0
  C  C603  1  0.21848000  0.59382000  0.85421000  1.0
  N  N604  1  0.53198000  0.21069000  0.41494000  1.0
  N  N605  1  0.53821000  0.39373000  0.40133000  1.0
  N  N606  1  0.43510000  0.31159000  0.23022000  1.0
  N  N607  1  0.56280000  0.38106000  0.27732000  1.0
  N  N608  1  0.87267000  0.36158000  0.41644000  1.0
  N  N609  1  0.00481000  0.31032000  0.17946000  1.0
  N  N610  1  0.85986000  0.32982000  0.27134000  1.0
  N  N611  1  0.84910000  0.21639000  0.45884000  1.0
  N  N612  1  0.72700000  0.40015000  0.40852000  1.0
  N  N613  1  0.64891000  0.48119000  0.16677000  1.0
  N  N614  1  0.71447000  0.34304000  0.27448000  1.0
  N  N615  1  0.44024000  0.12095000  0.37086000  1.0
  N  N616  1  0.33423000  0.42520000  0.39976000  1.0
  N  N617  1  0.68471000  0.20781000  0.47650000  1.0
  N  N618  1  0.02052000  0.60109000  0.55955000  1.0
  N  N619  1  0.05732000  0.58357000  0.69646000  1.0
  N  N620  1  0.06486000  0.73160000  0.65439000  1.0
  N  N621  1  0.93663000  0.33119000  0.55288000  1.0
  N  N622  1  0.57268000  0.63231000  0.56937000  1.0
  N  N623  1  0.04884000  0.17879000  0.48370000  1.0
  N  N624  1  0.77369000  0.37684000  0.54619000  1.0
  N  N625  1  0.23960000  0.88125000  0.63615000  1.0
  N  N626  1  0.22662000  0.75019000  0.62842000  1.0
  N  N627  1  0.14674000  0.56736000  0.56985000  1.0
  N  N628  1  0.73581000  0.08042000  0.46489000  1.0
  N  N629  1  0.95497000  0.82228000  0.70055000  1.0
  N  N630  1  0.35719000  0.76796000  0.66868000  1.0
  N  N631  1  0.51503000  0.82456000  0.70183000  1.0
  N  N632  1  0.92481000  0.65684000  0.91833000  1.0
  N  N633  1  0.07056000  0.62337000  0.83597000  1.0
  N  N634  1  0.49546000  0.67548000  0.87758000  1.0
  N  N635  1  0.32763000  0.67546000  0.80913000  1.0
  N  N636  1  0.44578000  0.60449000  0.69040000  1.0
  N  N637  1  0.24910000  0.56370000  0.68320000  1.0
  N  N638  1  0.28298000  0.49769000  0.93598000  1.0
  N  N639  1  0.20413000  0.62721000  0.82344000  1.0
  O  O640  1  0.70289000  0.38155000  0.36917000  1.0
  O  O641  1  0.64617000  0.31468000  0.38539000  1.0
  O  O642  1  0.80414000  0.32497000  0.43310000  1.0
  O  O643  1  0.61280000  0.38181000  0.31849000  1.0
  O  O644  1  0.70172000  0.30014000  0.33365000  1.0
  O  O645  1  0.84414000  0.34344000  0.37822000  1.0
  O  O646  1  0.69255000  0.36113000  0.31748000  1.0
  O  O647  1  0.56335000  0.26391000  0.40782000  1.0
  O  O648  1  0.56828000  0.33122000  0.33401000  1.0
  O  O649  1  0.54336000  0.26076000  0.35854000  1.0
  O  O650  1  0.71197000  0.33924000  0.42873000  1.0
  O  O651  1  0.75086000  0.31236000  0.38245000  1.0
  O  O652  1  0.60869000  0.38281000  0.37458000  1.0
  O  O653  1  0.79169000  0.26217000  0.44884000  1.0
  O  O654  1  0.69831000  0.24496000  0.41525000  1.0
  O  O655  1  0.54847000  0.34023000  0.39733000  1.0
  O  O656  1  0.70448000  0.26801000  0.45396000  1.0
  O  O657  1  0.81925000  0.32167000  0.32349000  1.0
  O  O658  1  0.84027000  0.26524667  0.40142000  1.0
  O  O659  1  0.90133000  0.30755000  0.32431000  1.0
  O  O660  1  0.20871000  0.69012000  0.64933000  1.0
  O  O661  1  0.12113000  0.62400000  0.67637000  1.0
  O  O662  1  0.21020000  0.61938000  0.66919000  1.0
  O  O663  1  0.12081000  0.68665000  0.65883000  1.0
  O  O664  1  0.42284000  0.66576000  0.66753000  1.0
  O  O665  1  0.17807000  0.64171000  0.72167000  1.0
  O  O666  1  0.29107000  0.73130000  0.69562000  1.0
  O  O667  1  0.24893000  0.58653000  0.72283000  1.0
  O  O668  1  0.36759000  0.70496000  0.69560000  1.0
  O  O669  1  0.11238000  0.62771000  0.78543000  1.0
  O  O670  1  0.08473000  0.60568000  0.73208000  1.0
  O  O671  1  0.03164000  0.64569000  0.78204000  1.0
  O  O672  1  0.20643000  0.71270000  0.68911000  1.0
  O  O673  1  0.28421000  0.65537000  0.71500000  1.0
  O  O674  1  0.28419000  0.69377000  0.75860000  1.0
  O  O675  1  0.23631000  0.60877000  0.78259000  1.0
  O  O676  1  0.08647000  0.68455000  0.71025000  1.0
  O  O677  1  0.21145000  0.66845000  0.76286000  1.0
  O  O678  1  0.38684000  0.62371000  0.71980000  1.0
  O  O679  1  0.34881000  0.65265000  0.76981000  1.0
