# generated using pymatgen
data_Co2H17C41Br12(NO5)2
_symmetry_space_group_name_H-M   'P 1'
_cell_length_a   16.94854593
_cell_length_b   17.07175000
_cell_length_c   17.42345000
_cell_angle_alpha   91.09100000
_cell_angle_beta   93.73539180
_cell_angle_gamma   107.31203041
_symmetry_Int_Tables_number   1
_chemical_formula_structural   Co2H17C41Br12(NO5)2
_chemical_formula_sum   'Co2 H17 C41 Br12 N2 O10'
_cell_volume   4798.81058713
_cell_formula_units_Z   1
loop_
 _symmetry_equiv_pos_site_id
 _symmetry_equiv_pos_as_xyz
  1  'x, y, z'
loop_
 _atom_site_type_symbol
 _atom_site_label
 _atom_site_symmetry_multiplicity
 _atom_site_fract_x
 _atom_site_fract_y
 _atom_site_fract_z
 _atom_site_occupancy
  Br  Br0  1  0.78422000  0.99360000  0.82650000  1.0
  Br  Br1  1  0.58750000  0.92026000  0.83160000  1.0
  Br  Br2  1  0.81930000  0.85162000  0.12592000  1.0
  Br  Br3  1  0.62788000  0.75670000  0.11222000  1.0
  Br  Br4  1  0.19992000  0.03642000  0.89170000  1.0
  Br  Br5  1  0.30986000  0.91634000  0.88766000  1.0
  Br  Br6  1  0.97960000  0.78724000  0.08870000  1.0
  Br  Br7  1  0.09914000  0.68428000  0.07340000  1.0
  Br  Br8  1  0.90236000  0.20812000  0.89974000  1.0
  Br  Br9  1  0.00764000  0.39590000  0.87894000  1.0
  Br  Br10  1  0.19218000  0.17718000  0.09466000  1.0
  Br  Br11  1  0.27610000  0.36456000  0.07882000  1.0
  C  C12  1  0.00246000  0.09926000  0.97850000  1.0
  C  C13  1  0.05782000  0.04884000  0.00540000  1.0
  C  C14  1  0.03026000  0.96056000  0.97320000  1.0
  C  C15  1  0.94542000  0.91930000  0.99886000  1.0
  C  C16  1  0.88598000  0.96316000  0.97088000  1.0
  C  C17  1  0.91394000  0.05314000  0.00366000  1.0
  C  C18  1  0.19036000  0.45852000  0.97234000  1.0
  C  C19  1  0.35791500  0.67408000  0.11724500  1.0
  C  C20  1  0.23878000  0.75516000  0.97200000  1.0
  C  C21  1  0.52722000  0.79124000  0.97034000  1.0
  C  C22  1  0.31200000  0.63330000  0.83836000  1.0
  C  C23  1  0.41632000  0.69350000  0.72878000  1.0
  C  C24  1  0.42644000  0.69886000  0.64720000  1.0
  C  C25  1  0.36102000  0.65858000  0.58990000  1.0
  C  C26  1  0.28830000  0.61338000  0.62002000  1.0
  C  C27  1  0.27860000  0.60806000  0.69878000  1.0
  C  C28  1  0.33942000  0.64858000  0.75604000  1.0
  C  C29  1  0.32236000  0.63338000  0.36922000  1.0
  C  C30  1  0.25696000  0.59204000  0.31244000  1.0
  C  C31  1  0.26580000  0.59802000  0.23054000  1.0
  C  C32  1  0.34016000  0.64722000  0.20132000  1.0
  C  C33  1  0.40366000  0.68326000  0.25820000  1.0
  C  C34  1  0.39498000  0.67794000  0.33800000  1.0
  C  C35  1  0.79388000  0.91698000  0.97380000  1.0
  C  C36  1  0.75834000  0.86642000  0.03400000  1.0
  C  C37  1  0.67298000  0.82632000  0.03052000  1.0
  C  C38  1  0.61902000  0.83790000  0.97042000  1.0
  C  C39  1  0.65424000  0.89350000  0.91338000  1.0
  C  C40  1  0.74026000  0.92884000  0.91308000  1.0
  C  C41  1  0.09192000  0.91434000  0.99054000  1.0
  C  C42  1  0.07176000  0.83738000  0.02816000  1.0
  C  C43  1  0.12076000  0.78650000  0.02070000  1.0
  C  C44  1  0.18812000  0.80896000  0.97674000  1.0
  C  C45  1  0.21360000  0.88628000  0.94608000  1.0
  C  C46  1  0.16616000  0.93908000  0.95186000  1.0
  C  C47  1  0.04468000  0.19460000  0.99424000  1.0
  C  C48  1  0.12734000  0.23124000  0.03104000  1.0
  C  C49  1  0.17074000  0.31516000  0.02304000  1.0
  C  C50  1  0.13936000  0.36692000  0.97790000  1.0
  C  C51  1  0.05704000  0.33216000  0.94386000  1.0
  C  C52  1  0.01096000  0.24884000  0.95268000  1.0
  Co  Co53  1  0.25705500  0.59649500  0.95184500  1.0
  Co  Co54  1  0.39167000  0.73145000  0.00044000  1.0
  H  H55  1  0.99694000  0.09194000  0.91506000  1.0
  H  H56  1  0.06154000  0.04902000  0.06856000  1.0
  H  H57  1  0.11514000  0.08056000  0.98352000  1.0
  H  H58  1  0.02464000  0.96164000  0.91000000  1.0
  H  H59  1  0.95254000  0.92506000  0.06150000  1.0
  H  H60  1  0.92410000  0.85680000  0.97292000  1.0
  H  H61  1  0.89768000  0.96340000  0.91002000  1.0
  H  H62  1  0.91440000  0.05382000  0.06670000  1.0
  H  H63  1  0.86512000  0.07854000  0.98366000  1.0
  H  H64  1  0.46860000  0.72310000  0.76952000  1.0
  H  H65  1  0.48574000  0.73430000  0.62968000  1.0
  H  H66  1  0.23668000  0.58068000  0.58252000  1.0
  H  H67  1  0.22060000  0.57008000  0.71566000  1.0
  H  H68  1  0.19794000  0.55624000  0.33060000  1.0
  H  H69  1  0.21386000  0.56570000  0.19074000  1.0
  H  H70  1  0.46204000  0.71870000  0.23996000  1.0
  H  H71  1  0.44634000  0.71134000  0.37574000  1.0
  N  N72  1  0.36998000  0.66364000  0.50616000  1.0
  N  N73  1  0.31358000  0.62892000  0.45318000  1.0
  O  O74  1  0.16070000  0.52038000  0.98186000  1.0
  O  O75  1  0.27136000  0.49096000  0.95918000  1.0
  O  O76  1  0.41402000  0.74605500  0.10487000  1.0
  O  O77  1  0.31638500  0.64214500  0.04907500  1.0
  O  O78  1  0.31300000  0.78244000  0.00240000  1.0
  O  O79  1  0.46776000  0.82526000  0.96384000  1.0
  O  O80  1  0.49434000  0.71424000  0.99334000  1.0
  O  O81  1  0.23892500  0.57770500  0.84902000  1.0
  O  O82  1  0.34800000  0.66456000  0.90858000  1.0
  O  O83  1  0.20774000  0.67982000  0.94598000  1.0
