# generated using pymatgen
data_Co2SiH34C38N11O10
_symmetry_space_group_name_H-M   'P 1'
_cell_length_a   14.11295000
_cell_length_b   19.65035000
_cell_length_c   19.73269775
_cell_angle_alpha   109.16307460
_cell_angle_beta   93.69069468
_cell_angle_gamma   91.05000000
_symmetry_Int_Tables_number   1
_chemical_formula_structural   Co2SiH34C38N11O10
_chemical_formula_sum   'Co2 Si1 H34 C38 N11 O10'
_cell_volume   5153.88407484
_cell_formula_units_Z   1
loop_
 _symmetry_equiv_pos_site_id
 _symmetry_equiv_pos_as_xyz
  1  'x, y, z'
loop_
 _atom_site_type_symbol
 _atom_site_label
 _atom_site_symmetry_multiplicity
 _atom_site_fract_x
 _atom_site_fract_y
 _atom_site_fract_z
 _atom_site_occupancy
  C  C0  1  0.14762000  0.06774000  0.23874000  1.0
  C  C1  1  0.08553000  0.12322500  0.24138500  1.0
  C  C2  1  0.06034000  0.17010000  0.30758000  1.0
  C  C3  1  0.09712000  0.16286000  0.37280000  1.0
  C  C4  1  0.15664000  0.10550000  0.36984000  1.0
  C  C5  1  0.18146000  0.05840000  0.30350000  1.0
  C  C6  1  0.31732000  0.98586000  0.17126000  1.0
  C  C7  1  0.07378000  0.21600000  0.44260000  1.0
  C  C8  1  0.07182000  0.30162000  0.62980000  1.0
  C  C9  1  0.10774000  0.22136000  0.51198000  1.0
  C  C10  1  0.94576000  0.32846000  0.79840000  1.0
  C  C11  1  0.23416000  0.44765500  0.81111500  1.0
  C  C12  1  0.33362000  0.44491000  0.78963000  1.0
  C  C13  1  0.50952000  0.34086000  0.75818000  1.0
  C  C14  1  0.77834500  0.35152000  0.77364000  1.0
  C  C15  1  0.61044500  0.34138000  0.73470000  1.0
  C  C16  1  0.01694000  0.54902500  0.87914000  1.0
  C  C17  1  0.15517500  0.33029000  0.87825000  1.0
  C  C18  1  0.39550000  0.41262000  0.83698000  1.0
  C  C19  1  0.56322000  0.41856000  0.87828000  1.0
  C  C20  1  0.84840000  0.32755000  0.82320000  1.0
  C  C21  1  0.66442000  0.41933000  0.85523000  1.0
  C  C22  1  0.19006000  0.23138000  0.92346000  1.0
  C  C23  1  0.98802000  0.73016000  0.96832000  1.0
  C  C24  1  0.02066000  0.67748000  0.90912000  1.0
  C  C25  1  0.21100500  0.07616000  0.09778000  1.0
  C  C26  1  0.15360000  0.06708000  0.03436000  1.0
  C  C27  1  0.16326000  0.11520000  0.99622000  1.0
  C  C28  1  0.22944500  0.17370000  0.02170000  1.0
  C  C29  1  0.28798000  0.18162000  0.08442000  1.0
  C  C30  1  0.27886000  0.13328000  0.12206000  1.0
  C  C31  1  0.12690000  0.93290500  0.09410500  1.0
  C  C32  1  0.16202000  0.89156000  0.02898000  1.0
  C  C33  1  0.11432000  0.82769000  0.98563000  1.0
  C  C34  1  0.03080000  0.80340000  0.00700000  1.0
  C  C35  1  0.23060000  0.23177000  0.98970000  1.0
  C  C36  1  0.99406000  0.84648000  0.07128000  1.0
  C  C37  1  0.04174000  0.91074000  0.11446000  1.0
  Co  Co38  1  0.06954000  0.33226000  0.74584000  1.0
  Co  Co39  1  0.09816000  0.45308500  0.84610500  1.0
  H  H40  1  0.05858000  0.13196000  0.19244000  1.0
  H  H41  1  0.01370000  0.21317000  0.30752000  1.0
  H  H42  1  0.18553500  0.09746000  0.41858000  1.0
  H  H43  1  0.22936000  0.01606000  0.30330000  1.0
  H  H44  1  0.01300000  0.94206000  0.16420000  1.0
  H  H45  1  0.36016000  0.03227500  0.20911500  1.0
  H  H46  1  0.31062000  0.94277000  0.19569000  1.0
  H  H47  1  0.32360000  0.14163500  0.17097500  1.0
  H  H48  1  0.15700000  0.18721500  0.52841500  1.0
  H  H49  1  0.45932000  0.33454000  0.71064000  1.0
  H  H50  1  0.49808000  0.29362000  0.77652000  1.0
  H  H51  1  0.78220000  0.31274000  0.71820000  1.0
  H  H52  1  0.80096000  0.40559000  0.77199000  1.0
  H  H53  1  0.61948000  0.38478000  0.71052000  1.0
  H  H54  1  0.62000000  0.28858000  0.69274000  1.0
  H  H55  1  0.33490000  0.41182000  0.73208000  1.0
  H  H56  1  0.36136000  0.50053500  0.79786000  1.0
  H  H57  1  0.11606000  0.10832000  0.94886000  1.0
  H  H58  1  0.14508000  0.79650000  0.93684000  1.0
  H  H59  1  0.39174000  0.44788000  0.89390000  1.0
  H  H60  1  0.36590000  0.35836000  0.83316000  1.0
  H  H61  1  0.55328000  0.37472000  0.90172000  1.0
  H  H62  1  0.55350000  0.47110000  0.92058000  1.0
  H  H63  1  0.84906000  0.36510000  0.87920000  1.0
  H  H64  1  0.82752000  0.27214000  0.82130000  1.0
  H  H65  1  0.71390000  0.42508000  0.90296000  1.0
  H  H66  1  0.67596000  0.46724000  0.83794000  1.0
  H  H67  1  0.15482000  0.18686000  0.88076000  1.0
  H  H68  1  0.07942000  0.68258500  0.87830500  1.0
  H  H69  1  0.33944000  0.22638000  0.10552000  1.0
  H  H70  1  0.22734000  0.90808000  0.01180000  1.0
  H  H71  1  0.35324000  0.96470500  0.12060500  1.0
  H  H72  1  0.09954000  0.02412000  0.01492000  1.0
  H  H73  1  0.92984000  0.82950000  0.08942000  1.0
  N  N74  1  0.01288000  0.26947500  0.44801500  1.0
  N  N75  1  0.00880000  0.30572000  0.51738000  1.0
  N  N76  1  0.06521500  0.27790000  0.55668000  1.0
  N  N77  1  0.49438000  0.40888500  0.81608000  1.0
  N  N78  1  0.68060000  0.35192000  0.79650000  1.0
  N  N79  1  0.19432000  0.30068000  0.92580000  1.0
  N  N80  1  0.92428000  0.62780000  0.96162000  1.0
  N  N81  1  0.97976000  0.61440000  0.90758000  1.0
  N  N82  1  0.23596000  0.34049500  0.98868000  1.0
  N  N83  1  0.25928000  0.30007500  0.02845500  1.0
  N  N84  1  0.92654000  0.69748000  0.99850000  1.0
  O  O85  1  0.05052000  0.52434500  0.81352500  1.0
  O  O86  1  0.97160000  0.27244000  0.74310000  1.0
  O  O87  1  0.99130000  0.39246000  0.80834000  1.0
  O  O88  1  0.13014000  0.29310000  0.81182000  1.0
  O  O89  1  0.12666000  0.27182000  0.66936000  1.0
  O  O90  1  0.01833500  0.35388000  0.66836000  1.0
  O  O91  1  0.16342000  0.40708000  0.76474000  1.0
  O  O92  1  0.03602000  0.50861500  0.92027500  1.0
  O  O93  1  0.21028000  0.49958000  0.87070000  1.0
  O  O94  1  0.14198000  0.39834500  0.90050500  1.0
  Si  Si95  1  0.19640000  0.01530000  0.15146000  1.0
