# generated using pymatgen
data_Li2Cd3C32(N3O)16
_symmetry_space_group_name_H-M   'P 1'
_cell_length_a   18.41205000
_cell_length_b   23.86822621
_cell_length_c   27.23015000
_cell_angle_alpha   72.08284715
_cell_angle_beta   84.27200000
_cell_angle_gamma   85.64693196
_symmetry_Int_Tables_number   1
_chemical_formula_structural   Li2Cd3C32(N3O)16
_chemical_formula_sum   'Li6 Cd9 C96 N144 O48'
_cell_volume   11316.51809088
_cell_formula_units_Z   3
loop_
 _symmetry_equiv_pos_site_id
 _symmetry_equiv_pos_as_xyz
  1  'x, y, z'
loop_
 _atom_site_type_symbol
 _atom_site_label
 _atom_site_symmetry_multiplicity
 _atom_site_fract_x
 _atom_site_fract_y
 _atom_site_fract_z
 _atom_site_occupancy
  C  C0  1  0.59547000  0.08833750  0.09251250  1.0
  C  C1  1  0.95694000  0.95934500  0.20012500  1.0
  C  C2  1  0.98782000  0.12024500  0.03332000  1.0
  C  C3  1  0.78413000  0.97142500  0.11474000  1.0
  C  C4  1  0.01688500  0.95952750  0.07738750  1.0
  C  C5  1  0.76782500  0.17780750  0.08140750  1.0
  C  C6  1  0.74694000  0.04057500  0.23019500  1.0
  C  C7  1  0.02049000  0.11968750  0.15911250  1.0
  C  C8  1  0.38913000  0.52862500  0.50616000  1.0
  C  C9  1  0.64268000  0.31393750  0.51244750  1.0
  C  C10  1  0.65653000  0.45410500  0.36358000  1.0
  C  C11  1  0.39043500  0.36796000  0.42530000  1.0
  C  C12  1  0.80936500  0.40398500  0.49228000  1.0
  C  C13  1  0.45731500  0.52850000  0.38448000  1.0
  C  C14  1  0.41172000  0.36888000  0.55196500  1.0
  C  C15  1  0.61611000  0.51886500  0.48391500  1.0
  C  C16  1  0.93612500  0.76754500  0.77271000  1.0
  C  C17  1  0.30903000  0.65467250  0.87610250  1.0
  C  C18  1  0.31815500  0.80969250  0.70487750  1.0
  C  C19  1  0.12882500  0.64735500  0.77751000  1.0
  C  C20  1  0.36484500  0.65701500  0.75403500  1.0
  C  C21  1  0.10123000  0.85009750  0.74536750  1.0
  C  C22  1  0.08539000  0.70387500  0.89754000  1.0
  C  C23  1  0.33450500  0.82125750  0.83260750  1.0
  C  C24  1  0.17775500  0.95471250  0.99746750  1.0
  C  C25  1  0.04166500  0.93112750  0.03837750  1.0
  C  C26  1  0.23572500  0.98863500  0.00380000  1.0
  C  C27  1  0.34089500  0.05248000  0.01883500  1.0
  C  C28  1  0.40439000  0.07507500  0.03214500  1.0
  C  C29  1  0.52844500  0.09335750  0.06816750  1.0
  C  C30  1  0.23243000  0.50590000  0.58652500  1.0
  C  C31  1  0.36040500  0.55172750  0.54803250  1.0
  C  C32  1  0.18127500  0.46689500  0.57941000  1.0
  C  C33  1  0.07967000  0.40267000  0.56075000  1.0
  C  C34  1  0.01193000  0.38745250  0.54693250  1.0
  C  C35  1  0.87964500  0.39214750  0.51216750  1.0
  C  C36  1  0.73319500  0.74088750  0.74466250  1.0
  C  C37  1  0.86129500  0.77428750  0.76232250  1.0
  C  C38  1  0.67759500  0.70622000  0.73644500  1.0
  C  C39  1  0.59233000  0.62680250  0.72186250  1.0
  C  C40  1  0.53079000  0.59817500  0.71270500  1.0
  C  C41  1  0.38676000  0.61225000  0.72925500  1.0
  C  C42  1  0.44345500  0.87999750  0.56316750  1.0
  C  C43  1  0.34926500  0.83483500  0.64967500  1.0
  C  C44  1  0.49623500  0.90441750  0.51610750  1.0
  C  C45  1  0.58984500  0.94842500  0.42919000  1.0
  C  C46  1  0.63820000  0.97273750  0.37966750  1.0
  C  C47  1  0.71928500  0.01716500  0.28651000  1.0
  C  C48  1  0.42866500  0.50471000  0.94810000  1.0
  C  C49  1  0.33475500  0.59380250  0.90025750  1.0
  C  C50  1  0.48380500  0.45965500  0.97288000  1.0
  C  C51  1  0.59011000  0.37946250  0.01564750  1.0
  C  C52  1  0.64666000  0.33376500  0.03679000  1.0
  C  C53  1  0.74086000  0.23929750  0.07007750  1.0
  C  C54  1  0.38991000  0.90254500  0.92837000  1.0
  C  C55  1  0.32170500  0.85838000  0.86579000  1.0
  C  C56  1  0.44398000  0.91781000  0.95738500  1.0
  C  C57  1  0.55842000  0.93378750  0.00595750  1.0
  C  C58  1  0.62176000  0.94013250  0.03200250  1.0
  C  C59  1  0.73572000  0.95335500  0.08273000  1.0
  C  C60  1  0.29032000  0.28916500  0.69622500  1.0
  C  C61  1  0.37344500  0.33572750  0.60397750  1.0
  C  C62  1  0.24258500  0.26442250  0.74644750  1.0
  C  C63  1  0.15398500  0.22144500  0.83676000  1.0
  C  C64  1  0.10614000  0.19777750  0.88719750  1.0
  C  C65  1  0.02352000  0.15388250  0.98034250  1.0
  C  C66  1  0.33637000  0.67695500  0.32563500  1.0
  C  C67  1  0.44109000  0.59161000  0.36228500  1.0
  C  C68  1  0.27097500  0.71407500  0.30754000  1.0
  C  C69  1  0.14518000  0.77471500  0.27465000  1.0
  C  C70  1  0.07942500  0.81155500  0.25690000  1.0
  C  C71  1  0.97325500  0.89611750  0.22157250  1.0
  C  C72  1  0.31220000  0.27481750  0.34535750  1.0
  C  C73  1  0.39118000  0.32341000  0.39917000  1.0
  C  C74  1  0.25913000  0.25612500  0.31792000  1.0
  C  C75  1  0.15332000  0.22772500  0.26897500  1.0
  C  C76  1  0.10016000  0.20916750  0.24146750  1.0
  C  C77  1  0.02067500  0.16193250  0.18692250  1.0
  C  C78  1  0.77040500  0.52195500  0.21746500  1.0
  C  C79  1  0.68614000  0.47544000  0.30814500  1.0
  C  C80  1  0.81989000  0.54825250  0.16967750  1.0
  C  C81  1  0.91392500  0.59752750  0.08505750  1.0
  C  C82  1  0.96509500  0.62540750  0.03869250  1.0
  C  C83  1  0.05453000  0.67769750  0.95214750  1.0
  C  C84  1  0.97299500  0.99614000  0.67874000  1.0
  C  C85  1  0.06904000  0.91011000  0.72852000  1.0
  C  C86  1  0.91812500  0.03842500  0.64994000  1.0
  C  C87  1  0.81578000  0.11428250  0.59610750  1.0
  C  C88  1  0.76213500  0.15914500  0.56871000  1.0
  C  C89  1  0.67129000  0.25268000  0.52484500  1.0
  C  C90  1  0.98138500  0.60978250  0.68516250  1.0
  C  C91  1  0.08399000  0.63143250  0.74153750  1.0
  C  C92  1  0.92346500  0.59803000  0.65637000  1.0
  C  C93  1  0.81597500  0.57529500  0.60466500  1.0
  C  C94  1  0.75930000  0.56224500  0.57566000  1.0
  C  C95  1  0.65996000  0.53672750  0.51910250  1.0
  Cd  Cd96  1  0.71885500  0.08349750  0.11801250  1.0
  Cd  Cd97  1  0.99261000  0.02531500  0.12591500  1.0
  Cd  Cd98  1  0.86483500  0.07140250  0.13238750  1.0
  Cd  Cd99  1  0.41623000  0.46263250  0.45769750  1.0
  Cd  Cd100  1  0.68371500  0.41093000  0.47510000  1.0
  Cd  Cd101  1  0.54116500  0.41737000  0.45892000  1.0
  Cd  Cd102  1  0.06161000  0.75499750  0.78640250  1.0
  Cd  Cd103  1  0.33215000  0.72366750  0.79944750  1.0
  Cd  Cd104  1  0.20053000  0.75097500  0.80351500  1.0
  Li  Li105  1  0.69467500  0.00206500  0.14289500  1.0
  Li  Li106  1  0.08015500  0.02998750  0.12915250  1.0
  Li  Li107  1  0.33125000  0.46034750  0.45059750  1.0
  Li  Li108  1  0.70685000  0.49293750  0.45757750  1.0
  Li  Li109  1  0.03730000  0.67378250  0.80176750  1.0
  Li  Li110  1  0.41699000  0.73975750  0.80086750  1.0
  N  N111  1  0.12062500  0.98524500  0.97221500  1.0
  N  N112  1  0.05279000  0.97178500  0.99145500  1.0
  N  N113  1  0.09673500  0.89045750  0.05397750  1.0
  N  N114  1  0.16482000  0.90354000  0.03535000  1.0
  N  N115  1  0.23038500  0.00793250  0.04596250  1.0
  N  N116  1  0.28231000  0.03917000  0.05356000  1.0
  N  N117  1  0.34522000  0.03441250  0.97597750  1.0
  N  N118  1  0.29290000  0.00351750  0.96815250  1.0
  N  N119  1  0.46969500  0.06770000  0.00714000  1.0
  N  N120  1  0.53065000  0.07632250  0.02507750  1.0
  N  N121  1  0.46310500  0.10241750  0.09268750  1.0
  N  N122  1  0.40180500  0.09315750  0.07494750  1.0
  N  N123  1  0.23450000  0.56094250  0.55256750  1.0
  N  N124  1  0.29833000  0.58537000  0.53589000  1.0
  N  N125  1  0.35659000  0.50726250  0.59320750  1.0
  N  N126  1  0.29324000  0.48211500  0.61067500  1.0
  N  N127  1  0.13343000  0.43864750  0.61827750  1.0
  N  N128  1  0.08276000  0.40752250  0.60882750  1.0
  N  N129  1  0.13045500  0.42818250  0.52271250  1.0
  N  N130  1  0.18069000  0.45965500  0.53203000  1.0
  N  N131  1  0.00584000  0.38451500  0.49857500  1.0
  N  N132  1  0.94034500  0.38616500  0.48156000  1.0
  N  N133  1  0.88572000  0.39428750  0.56046750  1.0
  N  N134  1  0.95085500  0.39167500  0.57767500  1.0
  N  N135  1  0.78288500  0.76361750  0.70486750  1.0
  N  N136  1  0.84627500  0.77957000  0.71365000  1.0
  N  N137  1  0.81000000  0.75503500  0.80202000  1.0
  N  N138  1  0.74656500  0.73849250  0.79329750  1.0
  N  N139  1  0.63892500  0.67025000  0.77720000  1.0
  N  N140  1  0.59622000  0.63174750  0.76985250  1.0
  N  N141  1  0.63093000  0.66303750  0.68123250  1.0
  N  N142  1  0.67390000  0.70129500  0.68858500  1.0
  N  N143  1  0.49117000  0.63015500  0.67328000  1.0
  N  N144  1  0.41906000  0.63588000  0.68118000  1.0
  N  N145  1  0.42302000  0.56616750  0.76132250  1.0
  N  N146  1  0.49524500  0.56073750  0.75436750  1.0
  N  N147  1  0.43875500  0.82089500  0.58561000  1.0
  N  N148  1  0.39373500  0.79910250  0.62791750  1.0
  N  N149  1  0.35451000  0.89404750  0.62754250  1.0
  N  N150  1  0.39955000  0.91598750  0.58506750  1.0
  N  N151  1  0.50199500  0.96351000  0.49360500  1.0
  N  N152  1  0.54742000  0.98488500  0.45133500  1.0
  N  N153  1  0.58478000  0.88932250  0.45209750  1.0
  N  N154  1  0.53938500  0.86795250  0.49437750  1.0
  N  N155  1  0.67761500  0.93644750  0.35577750  1.0
  N  N156  1  0.71651500  0.95803250  0.31029750  1.0
  N  N157  1  0.67953500  0.05332500  0.31031000  1.0
  N  N158  1  0.64083500  0.03181750  0.35583250  1.0
  N  N159  1  0.37500000  0.52648500  0.97605000  1.0
  N  N160  1  0.32971000  0.57087000  0.95257500  1.0
  N  N161  1  0.38800000  0.57128500  0.87268500  1.0
  N  N162  1  0.43354000  0.52749750  0.89593750  1.0
  N  N163  1  0.53563500  0.43965500  0.94271000  1.0
  N  N164  1  0.58747000  0.40036000  0.96363500  1.0
  N  N165  1  0.53816500  0.39922250  0.04620750  1.0
  N  N166  1  0.48610000  0.43892250  0.02513250  1.0
  N  N167  1  0.64602500  0.30311000  0.08792500  1.0
  N  N168  1  0.69193500  0.25632500  0.10421000  1.0
  N  N169  1  0.74258500  0.27136500  0.01952500  1.0
  N  N170  1  0.69698000  0.31772250  0.00331750  1.0
  N  N171  1  0.35483500  0.85159000  0.94813000  1.0
  N  N172  1  0.32146000  0.82990000  0.91732000  1.0
  N  N173  1  0.35146500  0.91166250  0.84737750  1.0
  N  N174  1  0.38486000  0.93342750  0.87799250  1.0
  N  N175  1  0.49426000  0.95773500  0.93224000  1.0
  N  N176  1  0.55038000  0.96575250  0.95610250  1.0
  N  N177  1  0.50747500  0.89463000  0.03138500  1.0
  N  N178  1  0.45154500  0.88645250  0.00744750  1.0
  N  N179  1  0.62866000  0.90738750  0.08174250  1.0
  N  N180  1  0.68424500  0.91407250  0.10664250  1.0
  N  N181  1  0.72983500  0.98520750  0.03235250  1.0
  N  N182  1  0.67407000  0.97843250  0.00734750  1.0
  N  N183  1  0.36243000  0.30028000  0.69522500  1.0
  N  N184  1  0.40295500  0.32308750  0.65037250  1.0
  N  N185  1  0.30152500  0.32481000  0.60540000  1.0
  N  N186  1  0.26140500  0.30192750  0.64987750  1.0
  N  N187  1  0.17258500  0.24959750  0.74572250  1.0
  N  N188  1  0.12958000  0.22865250  0.78949750  1.0
  N  N189  1  0.22402500  0.23616500  0.83744000  1.0
  N  N190  1  0.26703500  0.25701250  0.79370250  1.0
  N  N191  1  0.13421000  0.18956250  0.93324250  1.0
  N  N192  1  0.09442500  0.16798750  0.97807750  1.0
  N  N193  1  0.99483500  0.16179000  0.93421500  1.0
  N  N194  1  0.03502000  0.18349500  0.88891000  1.0
  N  N195  1  0.37911000  0.65293750  0.29317250  1.0
  N  N196  1  0.42972000  0.61072250  0.31125250  1.0
  N  N197  1  0.40168500  0.61894000  0.39396500  1.0
  N  N198  1  0.35030000  0.66063750  0.37614750  1.0
  N  N199  1  0.21766500  0.72508000  0.34193000  1.0
  N  N200  1  0.15623000  0.75515500  0.32575000  1.0
  N  N201  1  0.19852000  0.76377750  0.24021250  1.0
  N  N202  1  0.25998000  0.73366500  0.25639500  1.0
  N  N203  1  0.06510000  0.82837750  0.20644750  1.0
  N  N204  1  0.01299500  0.86969750  0.18929250  1.0
  N  N205  1  0.98500500  0.87636250  0.27249250  1.0
  N  N206  1  0.03633000  0.83454000  0.28991000  1.0
  N  N207  1  0.35641500  0.31941750  0.32027750  1.0
  N  N208  1  0.39477500  0.34344000  0.34678000  1.0
  N  N209  1  0.35009500  0.27669750  0.42382250  1.0
  N  N210  1  0.31178500  0.25258250  0.39745750  1.0
  N  N211  1  0.21056000  0.21539000  0.34430500  1.0
  N  N212  1  0.15888000  0.20109500  0.32019500  1.0
  N  N213  1  0.20187500  0.26850250  0.24259750  1.0
  N  N214  1  0.25359500  0.28276750  0.26668750  1.0
  N  N215  1  0.09899000  0.23319250  0.18968250  1.0
  N  N216  1  0.06036500  0.20974500  0.16297500  1.0
  N  N217  1  0.01903000  0.14001250  0.23925750  1.0
  N  N218  1  0.05768500  0.16337000  0.26615500  1.0
  N  N219  1  0.77869000  0.46421250  0.24530250  1.0
  N  N220  1  0.73827000  0.44181250  0.28974750  1.0
  N  N221  1  0.67787500  0.53326500  0.28031500  1.0
  N  N222  1  0.71851000  0.55580250  0.23589750  1.0
  N  N223  1  0.81580000  0.60705250  0.14458750  1.0
  N  N224  1  0.86154500  0.63101000  0.10336500  1.0
  N  N225  1  0.91779000  0.53857250  0.10988250  1.0
  N  N226  1  0.87204500  0.51458750  0.15124250  1.0
  N  N227  1  0.01568500  0.59285250  0.01771250  1.0
  N  N228  1  0.05865000  0.61829000  0.97514000  1.0
  N  N229  1  0.00347500  0.70985250  0.97297250  1.0
  N  N230  1  0.96060500  0.68456750  0.01540750  1.0
  N  N231  1  0.95910000  0.96585500  0.72952500  1.0
  N  N232  1  0.00589000  0.92330750  0.75377750  1.0
  N  N233  1  0.08324500  0.94144750  0.67812250  1.0
  N  N234  1  0.03676500  0.98398250  0.65389250  1.0
  N  N235  1  0.93098500  0.06589750  0.59843750  1.0
  N  N236  1  0.88097500  0.10335500  0.57205500  1.0
  N  N237  1  0.80284000  0.08646000  0.64749000  1.0
  N  N238  1  0.85282000  0.04911250  0.67384250  1.0
  N  N239  1  0.69980000  0.17143000  0.59504000  1.0
  N  N240  1  0.65586000  0.21748500  0.57377000  1.0
  N  N241  1  0.73273000  0.23935250  0.49776750  1.0
  N  N242  1  0.77701500  0.19319000  0.51911000  1.0
  N  N243  1  0.01997000  0.65934250  0.66692750  1.0
  N  N244  1  0.07008000  0.67009250  0.69468250  1.0
  N  N245  1  0.04577500  0.58180500  0.75920000  1.0
  N  N246  1  0.99589000  0.57109500  0.73157000  1.0
  N  N247  1  0.88288500  0.54997500  0.67737000  1.0
  N  N248  1  0.83026500  0.53875500  0.65205000  1.0
  N  N249  1  0.85640500  0.62348500  0.58368000  1.0
  N  N250  1  0.90902500  0.63474000  0.60903500  1.0
  N  N251  1  0.74695500  0.59866750  0.52790250  1.0
  N  N252  1  0.69859000  0.58606250  0.50018750  1.0
  N  N253  1  0.67163000  0.50041750  0.56727750  1.0
  N  N254  1  0.72024000  0.51304750  0.59506250  1.0
  O  O255  1  0.78566000  0.14396750  0.12729250  1.0
  O  O256  1  0.74130000  0.14953500  0.05390500  1.0
  O  O257  1  0.69801000  0.05213750  0.19656750  1.0
  O  O258  1  0.81703500  0.04854000  0.21305500  1.0
  O  O259  1  0.08426500  0.09326000  0.15263000  1.0
  O  O260  1  0.96232000  0.09833500  0.14795500  1.0
  O  O261  1  0.61352000  0.12267750  0.11798250  1.0
  O  O262  1  0.64447500  0.04826750  0.08771750  1.0
  O  O263  1  0.90897000  0.98195500  0.16390000  1.0
  O  O264  1  0.01595500  0.98859250  0.19712250  1.0
  O  O265  1  0.03390000  0.09065250  0.06577250  1.0
  O  O266  1  0.91622500  0.11564750  0.04973750  1.0
  O  O267  1  0.77157000  0.94789250  0.16492250  1.0
  O  O268  1  0.79900000  0.02758500  0.09900500  1.0
  O  O269  1  0.95499500  0.99188500  0.07520500  1.0
  O  O270  1  0.06732500  0.96776500  0.10590000  1.0
  O  O271  1  0.50120000  0.50654500  0.42339000  1.0
  O  O272  1  0.39992000  0.49866500  0.38463500  1.0
  O  O273  1  0.36857500  0.39904000  0.51742500  1.0
  O  O274  1  0.48394500  0.37275000  0.53861000  1.0
  O  O275  1  0.62928500  0.54637000  0.43447000  1.0
  O  O276  1  0.60193000  0.46262000  0.49632000  1.0
  O  O277  1  0.45041500  0.49542500  0.50969000  1.0
  O  O278  1  0.34134000  0.52211000  0.47491000  1.0
  O  O279  1  0.62358000  0.34651500  0.46631000  1.0
  O  O280  1  0.66760000  0.34372250  0.53932250  1.0
  O  O281  1  0.70216000  0.45038250  0.39790250  1.0
  O  O282  1  0.58890500  0.43732500  0.37958000  1.0
  O  O283  1  0.32781000  0.39633000  0.42810500  1.0
  O  O284  1  0.44873000  0.38741500  0.43847000  1.0
  O  O285  1  0.78647000  0.37645000  0.46267500  1.0
  O  O286  1  0.76235500  0.44062000  0.50652500  1.0
  O  O287  1  0.11792500  0.82134250  0.79332750  1.0
  O  O288  1  0.08155000  0.81670000  0.71965500  1.0
  O  O289  1  0.04076500  0.71103750  0.86226250  1.0
  O  O290  1  0.15240000  0.72243250  0.88300750  1.0
  O  O291  1  0.40298500  0.80421750  0.82526750  1.0
  O  O292  1  0.28418000  0.79305250  0.81997750  1.0
  O  O293  1  0.96320000  0.79277750  0.80245250  1.0
  O  O294  1  0.97915500  0.72985250  0.75626750  1.0
  O  O295  1  0.25904000  0.66862250  0.84053750  1.0
  O  O296  1  0.36157000  0.69135500  0.86993500  1.0
  O  O297  1  0.36626500  0.79178000  0.73827000  1.0
  O  O298  1  0.24960500  0.79314750  0.72101250  1.0
  O  O299  1  0.11509500  0.61924750  0.82666750  1.0
  O  O300  1  0.14365000  0.70318000  0.76620000  1.0
  O  O301  1  0.29794000  0.68113750  0.75414250  1.0
  O  O302  1  0.41538000  0.67542250  0.77660250  1.0
