# generated using pymatgen
data_Mn5H48C64N32(ClO2)2
_symmetry_space_group_name_H-M   'P 1'
_cell_length_a   17.35640000
_cell_length_b   30.26825000
_cell_length_c   30.76474602
_cell_angle_alpha   99.76373577
_cell_angle_beta   94.69109183
_cell_angle_gamma   101.94800000
_symmetry_Int_Tables_number   1
_chemical_formula_structural   Mn5H48C64N32(ClO2)2
_chemical_formula_sum   'Mn15 H144 C192 N96 Cl6 O12'
_cell_volume   15468.07751375
_cell_formula_units_Z   3
loop_
 _symmetry_equiv_pos_site_id
 _symmetry_equiv_pos_as_xyz
  1  'x, y, z'
loop_
 _atom_site_type_symbol
 _atom_site_label
 _atom_site_symmetry_multiplicity
 _atom_site_fract_x
 _atom_site_fract_y
 _atom_site_fract_z
 _atom_site_occupancy
  C  C0  1  0.07410000  0.86123000  0.82979000  1.0
  C  C1  1  0.83648000  0.84107000  0.95649000  1.0
  C  C2  1  0.88324000  0.05773000  0.95915000  1.0
  C  C3  1  0.14252000  0.97894000  0.00350000  1.0
  C  C4  1  0.85238000  0.08021000  0.21141000  1.0
  C  C5  1  0.09622000  0.09338000  0.09156000  1.0
  C  C6  1  0.04006000  0.87597000  0.09359000  1.0
  C  C7  1  0.79266000  0.95695000  0.04135000  1.0
  C  C8  1  0.72956000  0.51863000  0.16089000  1.0
  C  C9  1  0.50392000  0.50496000  0.29840000  1.0
  C  C10  1  0.53504000  0.71720000  0.28266000  1.0
  C  C11  1  0.80038000  0.65115000  0.32679000  1.0
  C  C12  1  0.53170000  0.73487000  0.55843000  1.0
  C  C13  1  0.74850000  0.76693000  0.40627000  1.0
  C  C14  1  0.74744000  0.56142000  0.42368000  1.0
  C  C15  1  0.45812000  0.61718000  0.37866000  1.0
  C  C16  1  0.44038000  0.21760000  0.50236000  1.0
  C  C17  1  0.17886000  0.17565000  0.61171000  1.0
  C  C18  1  0.19956000  0.39105000  0.62675000  1.0
  C  C19  1  0.47058000  0.32337000  0.66841000  1.0
  C  C20  1  0.18246000  0.38064000  0.89322000  1.0
  C  C21  1  0.40290000  0.43059000  0.75409000  1.0
  C  C22  1  0.38758000  0.21007000  0.74497000  1.0
  C  C23  1  0.12078000  0.27902000  0.70784000  1.0
  C  C24  1  0.69884000  0.90827500  0.98757500  1.0
  C  C25  1  0.62414000  0.92171000  0.00083000  1.0
  C  C26  1  0.57796000  0.89708000  0.02792000  1.0
  C  C27  1  0.50968000  0.90997000  0.04121000  1.0
  C  C28  1  0.48614000  0.94761000  0.02741000  1.0
  C  C29  1  0.53288000  0.97244000  0.00048000  1.0
  C  C30  1  0.60136000  0.95956000  0.98728000  1.0
  C  C31  1  0.41076000  0.95928000  0.03892000  1.0
  C  C32  1  0.34244000  0.92414000  0.03590000  1.0
  C  C33  1  0.26950000  0.93491000  0.04229000  1.0
  C  C34  1  0.26338000  0.98083000  0.05201000  1.0
  C  C35  1  0.33190000  0.01610000  0.05660000  1.0
  C  C36  1  0.40516000  0.00539000  0.05025000  1.0
  C  C37  1  0.18256000  0.99152500  0.05058500  1.0
  C  C38  1  0.90196000  0.70314000  0.37360000  1.0
  C  C39  1  0.97480000  0.68545000  0.36361000  1.0
  C  C40  1  0.99702000  0.65233500  0.38577500  1.0
  C  C41  1  0.06586000  0.63698000  0.37738000  1.0
  C  C42  1  0.11366000  0.65446000  0.34660000  1.0
  C  C43  1  0.09044000  0.68715000  0.32403000  1.0
  C  C44  1  0.02176000  0.70256000  0.33256000  1.0
  C  C45  1  0.18882000  0.63985000  0.33929000  1.0
  C  C46  1  0.25754000  0.67224000  0.33523000  1.0
  C  C47  1  0.32958000  0.65913000  0.33139000  1.0
  C  C48  1  0.33422000  0.61345000  0.33141000  1.0
  C  C49  1  0.26546000  0.58082000  0.33444000  1.0
  C  C50  1  0.19336000  0.59384000  0.33812000  1.0
  C  C51  1  0.41358000  0.60075000  0.33275000  1.0
  C  C52  1  0.56946000  0.36584000  0.72356000  1.0
  C  C53  1  0.64158000  0.34901000  0.70995000  1.0
  C  C54  1  0.66276000  0.31200000  0.72610000  1.0
  C  C55  1  0.73096000  0.29745000  0.71441000  1.0
  C  C56  1  0.77898000  0.31949000  0.68607000  1.0
  C  C57  1  0.75644000  0.35599000  0.66933000  1.0
  C  C58  1  0.68880000  0.37075000  0.68139000  1.0
  C  C59  1  0.85378000  0.30570000  0.67542000  1.0
  C  C60  1  0.92218000  0.33919000  0.67301000  1.0
  C  C61  1  0.99396000  0.32668000  0.66616000  1.0
  C  C62  1  0.99894000  0.28049000  0.66157000  1.0
  C  C63  1  0.93048000  0.24685000  0.66283000  1.0
  C  C64  1  0.85854000  0.25926000  0.66940000  1.0
  C  C65  1  0.07872000  0.26817000  0.66125000  1.0
  C  C66  1  0.77557000  0.77240000  0.90934000  1.0
  C  C67  1  0.72222000  0.72502000  0.90490000  1.0
  C  C68  1  0.64000000  0.71845500  0.89386500  1.0
  C  C69  1  0.59234000  0.67415000  0.87912000  1.0
  C  C70  1  0.62562000  0.63514000  0.87524000  1.0
  C  C71  1  0.70710000  0.64170000  0.88948000  1.0
  C  C72  1  0.75480000  0.68612000  0.90412000  1.0
  C  C73  1  0.57723000  0.58902000  0.85180000  1.0
  C  C74  1  0.49567000  0.57594000  0.85556000  1.0
  C  C75  1  0.44710000  0.53769000  0.82671000  1.0
  C  C76  1  0.47886000  0.51169000  0.79337000  1.0
  C  C77  1  0.56132000  0.52183000  0.79243000  1.0
  C  C78  1  0.60998000  0.56014000  0.82121000  1.0
  C  C79  1  0.42474000  0.48123000  0.75375000  1.0
  C  C80  1  0.73170000  0.05337000  0.23651000  1.0
  C  C81  1  0.68390000  0.07002000  0.27194000  1.0
  C  C82  1  0.69874000  0.06295000  0.31547000  1.0
  C  C83  1  0.66104000  0.08291500  0.34949500  1.0
  C  C84  1  0.60808000  0.11068500  0.34080500  1.0
  C  C85  1  0.59186000  0.11683000  0.29695000  1.0
  C  C86  1  0.62946000  0.09668000  0.26286000  1.0
  C  C87  1  0.57512000  0.13578000  0.37808000  1.0
  C  C88  1  0.55124000  0.11454000  0.41358000  1.0
  C  C89  1  0.53100000  0.14001000  0.45149000  1.0
  C  C90  1  0.53466000  0.18724000  0.45472000  1.0
  C  C91  1  0.55330000  0.20783000  0.41821000  1.0
  C  C92  1  0.57364000  0.18241000  0.38029000  1.0
  C  C93  1  0.52502000  0.21621000  0.49793000  1.0
  C  C94  1  0.88094000  0.12112000  0.92610000  1.0
  C  C95  1  0.81184000  0.13098000  0.89976000  1.0
  C  C96  1  0.79536000  0.11431000  0.85381000  1.0
  C  C97  1  0.73096000  0.12359000  0.82961000  1.0
  C  C98  1  0.68164000  0.14953000  0.85097000  1.0
  C  C99  1  0.69828000  0.16621000  0.89699000  1.0
  C  C100  1  0.76296000  0.15710500  0.92114500  1.0
  C  C101  1  0.61154000  0.15756000  0.82534000  1.0
  C  C102  1  0.61702000  0.16911000  0.78315000  1.0
  C  C103  1  0.54934000  0.17230500  0.75718500  1.0
  C  C104  1  0.47508000  0.16358000  0.77280000  1.0
  C  C105  1  0.47002000  0.15444000  0.81582000  1.0
  C  C106  1  0.53770000  0.15134000  0.84186000  1.0
  C  C107  1  0.40158000  0.16285000  0.74317000  1.0
  C  C108  1  0.16454000  0.15992000  0.13900000  1.0
  C  C109  1  0.21192000  0.20859000  0.14303000  1.0
  C  C110  1  0.29478000  0.21752000  0.14404000  1.0
  C  C111  1  0.34082000  0.26221000  0.15909000  1.0
  C  C112  1  0.30494000  0.29890000  0.17374000  1.0
  C  C113  1  0.22144000  0.29030000  0.16896000  1.0
  C  C114  1  0.17558000  0.24572000  0.15364000  1.0
  C  C115  1  0.35318000  0.34389000  0.19949000  1.0
  C  C116  1  0.41878000  0.34491000  0.23011000  1.0
  C  C117  1  0.45386000  0.38487000  0.26115000  1.0
  C  C118  1  0.42372000  0.42460000  0.26266000  1.0
  C  C119  1  0.36314000  0.42512500  0.22972500  1.0
  C  C120  1  0.32830000  0.38519000  0.19837000  1.0
  C  C121  1  0.44594000  0.46245000  0.30335000  1.0
  C  C122  1  0.18874000  0.89340000  0.80240000  1.0
  C  C123  1  0.24262000  0.88051000  0.76897000  1.0
  C  C124  1  0.30896000  0.86405000  0.78201000  1.0
  C  C125  1  0.35428000  0.84723000  0.75035000  1.0
  C  C126  1  0.33400000  0.84638000  0.70492000  1.0
  C  C127  1  0.26866000  0.86406000  0.69210000  1.0
  C  C128  1  0.22326000  0.88082000  0.72382000  1.0
  C  C129  1  0.37630000  0.82296000  0.67116000  1.0
  C  C130  1  0.45848000  0.82635000  0.67923000  1.0
  C  C131  1  0.49526000  0.79723000  0.65211000  1.0
  C  C132  1  0.45050000  0.76423000  0.61655000  1.0
  C  C133  1  0.37020000  0.76384500  0.60582500  1.0
  C  C134  1  0.33330667  0.79283000  0.63299000  1.0
  C  C135  1  0.48400000  0.72498000  0.59538000  1.0
  C  C136  1  0.10010000  0.81688000  0.06498000  1.0
  C  C137  1  0.16630000  0.80129000  0.08817000  1.0
  C  C138  1  0.24034000  0.83177000  0.10169000  1.0
  C  C139  1  0.29914000  0.81969000  0.12785000  1.0
  C  C140  1  0.28454000  0.77716000  0.14174000  1.0
  C  C141  1  0.21086000  0.74627000  0.12757000  1.0
  C  C142  1  0.15224000  0.75823000  0.10093000  1.0
  C  C143  1  0.34372000  0.76724000  0.17400000  1.0
  C  C144  1  0.42496000  0.77839000  0.16933000  1.0
  C  C145  1  0.48147000  0.77518000  0.20294000  1.0
  C  C146  1  0.45764000  0.76126000  0.24194000  1.0
  C  C147  1  0.37654000  0.74766000  0.24562000  1.0
  C  C148  1  0.31996000  0.75063000  0.21193000  1.0
  C  C149  1  0.51814000  0.76320000  0.28042000  1.0
  C  C150  1  0.11844000  0.10898000  0.56158000  1.0
  C  C151  1  0.06258000  0.06226000  0.55536000  1.0
  C  C152  1  0.98332000  0.05601000  0.53719000  1.0
  C  C153  1  0.93564000  0.01179000  0.52255000  1.0
  C  C154  1  0.96580000  0.97256000  0.52598000  1.0
  C  C155  1  0.04346000  0.97908000  0.54728000  1.0
  C  C156  1  0.09134000  0.02345000  0.56171000  1.0
  C  C157  1  0.91978000  0.92593000  0.50259000  1.0
  C  C158  1  0.83622000  0.91464000  0.49852000  1.0
  C  C159  1  0.79282000  0.87566000  0.46848000  1.0
  C  C160  1  0.83198000  0.84711000  0.44195000  1.0
  C  C161  1  0.91506000  0.85550000  0.44930000  1.0
  C  C162  1  0.95856000  0.89458000  0.47912000  1.0
  C  C163  1  0.78756000  0.81438000  0.40066000  1.0
  C  C164  1  0.84098000  0.55049500  0.13029500  1.0
  C  C165  1  0.89586000  0.53658000  0.09780000  1.0
  C  C166  1  0.95916000  0.51811000  0.11183000  1.0
  C  C167  1  0.00440000  0.49965000  0.08101000  1.0
  C  C168  1  0.98724000  0.49927000  0.03539000  1.0
  C  C169  1  0.92556000  0.51940000  0.02166000  1.0
  C  C170  1  0.88010000  0.53770000  0.05254000  1.0
  C  C171  1  0.02818000  0.47369000  0.00233000  1.0
  C  C172  1  0.10876000  0.47327000  0.01167000  1.0
  C  C173  1  0.14282000  0.44227000  0.98491000  1.0
  C  C174  1  0.09702000  0.41126000  0.94830000  1.0
  C  C175  1  0.01888000  0.41453000  0.93651000  1.0
  C  C176  1  0.98462000  0.44529000  0.96335000  1.0
  C  C177  1  0.12640000  0.37051000  0.92651000  1.0
  C  C178  1  0.82858000  0.51469000  0.39567000  1.0
  C  C179  1  0.89216000  0.49538000  0.41642000  1.0
  C  C180  1  0.96270000  0.52520000  0.43822000  1.0
  C  C181  1  0.01402000  0.50981000  0.46639000  1.0
  C  C182  1  0.99538000  0.46433000  0.47355000  1.0
  C  C183  1  0.92702000  0.43380000  0.44962000  1.0
  C  C184  1  0.87570000  0.44925000  0.42137000  1.0
  C  C185  1  0.04204000  0.45086000  0.50964000  1.0
  C  C186  1  0.12500000  0.46631000  0.51727000  1.0
  C  C187  1  0.16742000  0.45972000  0.55528000  1.0
  C  C188  1  0.12750000  0.43787000  0.58641000  1.0
  C  C189  1  0.04546000  0.41987000  0.57757000  1.0
  C  C190  1  0.00296000  0.42646000  0.53960000  1.0
  C  C191  1  0.17176000  0.43480000  0.62942000  1.0
  Cl  Cl192  1  0.03010000  0.99348500  0.86391500  1.0
  Cl  Cl193  1  0.89082000  0.94525000  0.18378000  1.0
  Cl  Cl194  1  0.67180000  0.64797000  0.18613000  1.0
  Cl  Cl195  1  0.59740000  0.61831000  0.51779000  1.0
  Cl  Cl196  1  0.35830000  0.34228000  0.52994000  1.0
  Cl  Cl197  1  0.24946000  0.26383000  0.84427000  1.0
  H  H198  1  0.68946000  0.89557000  0.95107000  1.0
  H  H199  1  0.71130000  0.87903000  0.00255000  1.0
  H  H200  1  0.59506000  0.86802000  0.03906000  1.0
  H  H201  1  0.47528000  0.89049000  0.06231000  1.0
  H  H202  1  0.63650000  0.97904000  0.96646000  1.0
  H  H203  1  0.51556000  0.00116000  0.98874000  1.0
  H  H204  1  0.34448000  0.88829000  0.02645000  1.0
  H  H205  1  0.21682000  0.90750000  0.03714000  1.0
  H  H206  1  0.45700000  0.03318000  0.05322000  1.0
  H  H207  1  0.32828000  0.05186000  0.06342000  1.0
  H  H208  1  0.14706000  0.97303000  0.07289000  1.0
  H  H209  1  0.18850000  0.02876000  0.06292000  1.0
  H  H210  1  0.89088000  0.72899000  0.35331000  1.0
  H  H211  1  0.91298000  0.72190000  0.40862000  1.0
  H  H212  1  0.96156000  0.63880000  0.40994000  1.0
  H  H213  1  0.08268000  0.61231000  0.39583000  1.0
  H  H214  1  0.00540000  0.72798000  0.31496000  1.0
  H  H215  1  0.12534000  0.70084000  0.29974000  1.0
  H  H216  1  0.25640000  0.70808000  0.33664000  1.0
  H  H217  1  0.38232000  0.68490000  0.32988000  1.0
  H  H218  1  0.14136000  0.56795000  0.34053000  1.0
  H  H219  1  0.26794000  0.54545000  0.33493000  1.0
  H  H220  1  0.44706000  0.61471000  0.30729000  1.0
  H  H221  1  0.40422000  0.56282000  0.32430000  1.0
  H  H222  1  0.56234000  0.39702000  0.71018000  1.0
  H  H223  1  0.57854000  0.37688000  0.76028000  1.0
  H  H224  1  0.62710000  0.29476000  0.74822000  1.0
  H  H225  1  0.74702000  0.26970000  0.72852000  1.0
  H  H226  1  0.67320000  0.39918000  0.66828000  1.0
  H  H227  1  0.79106000  0.37322000  0.64686000  1.0
  H  H228  1  0.92126000  0.37533000  0.67815000  1.0
  H  H229  1  0.04638000  0.35324000  0.66616000  1.0
  H  H230  1  0.80692000  0.23249000  0.67037000  1.0
  H  H231  1  0.93321000  0.21105000  0.65997000  1.0
  H  H232  1  0.07024000  0.23081000  0.64817000  1.0
  H  H233  1  0.11390000  0.28630000  0.63862000  1.0
  H  H234  1  0.74580000  0.79160000  0.88772000  1.0
  H  H235  1  0.83304000  0.76843500  0.89717500  1.0
  H  H236  1  0.61336000  0.74781000  0.89393000  1.0
  H  H237  1  0.53027000  0.67090000  0.86802000  1.0
  H  H238  1  0.81802000  0.69017000  0.91251000  1.0
  H  H239  1  0.73474000  0.61261000  0.88773000  1.0
  H  H240  1  0.46844000  0.59665000  0.87925000  1.0
  H  H241  1  0.38372000  0.53054000  0.82825000  1.0
  H  H242  1  0.67226000  0.56897500  0.81697500  1.0
  H  H243  1  0.58728000  0.50236000  0.76698000  1.0
  H  H244  1  0.36844000  0.49305000  0.75009000  1.0
  H  H245  1  0.45154000  0.48612000  0.72278000  1.0
  H  H246  1  0.69206000  0.03851000  0.20485000  1.0
  H  H247  1  0.76012000  0.02651000  0.24737000  1.0
  H  H248  1  0.74152000  0.04321000  0.32349000  1.0
  H  H249  1  0.67612000  0.07819000  0.38299000  1.0
  H  H250  1  0.61794000  0.10305000  0.22961000  1.0
  H  H251  1  0.55116000  0.13785000  0.28913000  1.0
  H  H252  1  0.55036000  0.07851000  0.41257000  1.0
  H  H253  1  0.51560000  0.12332000  0.47906000  1.0
  H  H254  1  0.59218000  0.19993000  0.35373000  1.0
  H  H255  1  0.55574000  0.24412000  0.41988000  1.0
  H  H256  1  0.54798000  0.20180000  0.52598000  1.0
  H  H257  1  0.56124000  0.25181000  0.50153000  1.0
  H  H258  1  0.91918000  0.15450000  0.94380000  1.0
  H  H259  1  0.91850000  0.10480500  0.90346500  1.0
  H  H260  1  0.83192000  0.09382000  0.83664000  1.0
  H  H261  1  0.71877000  0.10963000  0.79429000  1.0
  H  H262  1  0.77482000  0.17028000  0.95660000  1.0
  H  H263  1  0.66157000  0.18651000  0.91427000  1.0
  H  H264  1  0.67344000  0.17500000  0.76996000  1.0
  H  H265  1  0.55452000  0.18041000  0.72443000  1.0
  H  H266  1  0.53164000  0.14229000  0.87419000  1.0
  H  H267  1  0.41334000  0.14837000  0.82873000  1.0
  H  H268  1  0.40596000  0.14698000  0.70838000  1.0
  H  H269  1  0.34916000  0.14131000  0.75383000  1.0
  H  H270  1  0.11060000  0.16121000  0.15619000  1.0
  H  H271  1  0.20192000  0.14068000  0.15618000  1.0
  H  H272  1  0.32416000  0.18947000  0.13585000  1.0
  H  H273  1  0.40474000  0.26755000  0.16133000  1.0
  H  H274  1  0.11176000  0.23978000  0.15311000  1.0
  H  H275  1  0.19120000  0.31726000  0.18014000  1.0
  H  H276  1  0.43952000  0.31397000  0.23255000  1.0
  H  H277  1  0.50072000  0.38368000  0.28614000  1.0
  H  H278  1  0.27916000  0.38612000  0.17474000  1.0
  H  H279  1  0.33930000  0.45553000  0.23009000  1.0
  H  H280  1  0.39130000  0.47287500  0.31349500  1.0
  H  H281  1  0.46964000  0.44948000  0.33220000  1.0
  H  H282  1  0.15578000  0.91777000  0.79019000  1.0
  H  H283  1  0.22457000  0.90990000  0.83499000  1.0
  H  H284  1  0.32404000  0.86274000  0.81656000  1.0
  H  H285  1  0.40296000  0.83288000  0.76136000  1.0
  H  H286  1  0.17164000  0.89280000  0.71296000  1.0
  H  H287  1  0.25156000  0.86403000  0.65745000  1.0
  H  H288  1  0.49360000  0.84989000  0.70779000  1.0
  H  H289  1  0.55748000  0.79829000  0.66069000  1.0
  H  H290  1  0.26990000  0.78913000  0.62581000  1.0
  H  H291  1  0.33466000  0.73878500  0.57836500  1.0
  H  H292  1  0.52282000  0.71545000  0.62115000  1.0
  H  H293  1  0.43555000  0.69385000  0.58293000  1.0
  H  H294  1  0.06002000  0.78721000  0.04201000  1.0
  H  H295  1  0.12608000  0.84229000  0.04489000  1.0
  H  H296  1  0.25168000  0.86567000  0.09359000  1.0
  H  H297  1  0.35470000  0.84462000  0.13898000  1.0
  H  H298  1  0.09498000  0.73456000  0.09154000  1.0
  H  H299  1  0.19808000  0.71325000  0.13779000  1.0
  H  H300  1  0.44486000  0.79080000  0.14022000  1.0
  H  H301  1  0.54384000  0.78515000  0.19919000  1.0
  H  H302  1  0.25786000  0.74221000  0.21667000  1.0
  H  H303  1  0.35714000  0.73656000  0.27536000  1.0
  H  H304  1  0.57486000  0.78700000  0.27768000  1.0
  H  H305  1  0.49800000  0.77746000  0.31214000  1.0
  H  H306  1  0.09162000  0.13001000  0.54073000  1.0
  H  H307  1  0.17576000  0.10411000  0.54985000  1.0
  H  H308  1  0.95956000  0.08533000  0.53193000  1.0
  H  H309  1  0.87678000  0.00857000  0.50593000  1.0
  H  H310  1  0.15216000  0.02741000  0.57585000  1.0
  H  H311  1  0.06840000  0.94986000  0.55132000  1.0
  H  H312  1  0.80414000  0.93726000  0.51676000  1.0
  H  H313  1  0.72874000  0.86969000  0.46361000  1.0
  H  H314  1  0.02260000  0.90191000  0.48101000  1.0
  H  H315  1  0.94664000  0.83384000  0.42936000  1.0
  H  H316  1  0.74100000  0.82965000  0.38603000  1.0
  H  H317  1  0.82766000  0.81099000  0.37447000  1.0
  H  H318  1  0.80596000  0.57303000  0.11637000  1.0
  H  H319  1  0.87668000  0.56929000  0.16229000  1.0
  H  H320  1  0.97156000  0.51628000  0.14648000  1.0
  H  H321  1  0.05022000  0.48361000  0.09279000  1.0
  H  H322  1  0.83104000  0.55140000  0.04088000  1.0
  H  H323  1  0.91106000  0.52002000  0.98690000  1.0
  H  H324  1  0.14452000  0.49540000  0.04084000  1.0
  H  H325  1  0.20346000  0.44055000  0.99437000  1.0
  H  H326  1  0.92240000  0.44440000  0.95512000  1.0
  H  H327  1  0.98256000  0.39107000  0.90825000  1.0
  H  H328  1  0.15748000  0.35700000  0.95264000  1.0
  H  H329  1  0.07576000  0.34187000  0.91035000  1.0
  H  H330  1  0.79120000  0.48863000  0.36801000  1.0
  H  H331  1  0.85732000  0.54557000  0.38261000  1.0
  H  H332  1  0.97556000  0.56119500  0.43573500  1.0
  H  H333  1  0.06548000  0.53442000  0.48484000  1.0
  H  H334  1  0.82084000  0.42592000  0.40546000  1.0
  H  H335  1  0.91148000  0.39848000  0.45418000  1.0
  H  H336  1  0.15684000  0.48463000  0.49447000  1.0
  H  H337  1  0.23106000  0.47296000  0.56112000  1.0
  H  H338  1  0.93906000  0.41450000  0.53498000  1.0
  H  H339  1  0.01390000  0.40226000  0.60092000  1.0
  H  H340  1  0.22440000  0.46398000  0.63900000  1.0
  H  H341  1  0.13430000  0.43812000  0.65692000  1.0
  Mn  Mn342  1  0.14276000  0.96454000  0.86856000  1.0
  Mn  Mn343  1  0.95884000  0.94491000  0.90352000  1.0
  Mn  Mn344  1  0.78050000  0.97629000  0.17551000  1.0
  Mn  Mn345  1  0.96828000  0.99161000  0.14461000  1.0
  Mn  Mn346  1  0.96657000  0.96733000  0.02421000  1.0
  Mn  Mn347  1  0.78996000  0.62415000  0.19093000  1.0
  Mn  Mn348  1  0.61056000  0.60233000  0.23163000  1.0
  Mn  Mn349  1  0.47446000  0.63538000  0.51404000  1.0
  Mn  Mn350  1  0.65020000  0.66729000  0.47303000  1.0
  Mn  Mn351  1  0.63062000  0.63474000  0.35232000  1.0
  Mn  Mn352  1  0.47924000  0.32176000  0.53574000  1.0
  Mn  Mn353  1  0.29323000  0.28738000  0.56546000  1.0
  Mn  Mn354  1  0.12760000  0.28260000  0.84168000  1.0
  Mn  Mn355  1  0.30776000  0.31871000  0.80659000  1.0
  Mn  Mn356  1  0.29644000  0.30134000  0.68588000  1.0
  N  N357  1  0.06876000  0.90177000  0.85387000  1.0
  N  N358  1  0.99850000  0.89390000  0.86782000  1.0
  N  N359  1  0.96128000  0.85040000  0.85354000  1.0
  N  N360  1  0.00762000  0.82885000  0.82969000  1.0
  N  N361  1  0.85824000  0.85989000  0.92127000  1.0
  N  N362  1  0.90156000  0.90121000  0.93899000  1.0
  N  N363  1  0.90633000  0.90793000  0.98273000  1.0
  N  N364  1  0.86608000  0.87077000  0.99517000  1.0
  N  N365  1  0.92266000  0.99704000  0.93935000  1.0
  N  N366  1  0.89542000  0.02915000  0.92279000  1.0
  N  N367  1  0.06310000  0.96626000  0.99044000  1.0
  N  N368  1  0.05730000  0.95841000  0.94663000  1.0
  N  N369  1  0.12808000  0.96614000  0.93326000  1.0
  N  N370  1  0.18346000  0.97929000  0.96775000  1.0
  N  N371  1  0.92631000  0.00526000  0.98304000  1.0
  N  N372  1  0.90092000  0.04290500  0.99678500  1.0
  N  N373  1  0.85720000  0.03834000  0.18994000  1.0
  N  N374  1  0.92924000  0.04417000  0.17813000  1.0
  N  N375  1  0.96794000  0.08754500  0.19124500  1.0
  N  N376  1  0.92092000  0.11116000  0.21210000  1.0
  N  N377  1  0.07390000  0.07485000  0.12685000  1.0
  N  N378  1  0.03022000  0.03364000  0.10926000  1.0
  N  N379  1  0.02618000  0.02667000  0.06553000  1.0
  N  N380  1  0.06646000  0.06371000  0.05295000  1.0
  N  N381  1  0.02650000  0.89006000  0.05470000  1.0
  N  N382  1  0.00484000  0.92938000  0.06672000  1.0
  N  N383  1  0.00404000  0.93818000  0.11030000  1.0
  N  N384  1  0.02508000  0.90521000  0.12827000  1.0
  N  N385  1  0.87042000  0.96903000  0.05671000  1.0
  N  N386  1  0.87254000  0.97849000  0.10011000  1.0
  N  N387  1  0.80010000  0.97224000  0.11129000  1.0
  N  N388  1  0.74736000  0.95872000  0.07536000  1.0
  N  N389  1  0.72176000  0.55982000  0.18240000  1.0
  N  N390  1  0.65332000  0.55131000  0.19841000  1.0
  N  N391  1  0.61968000  0.50693000  0.18791000  1.0
  N  N392  1  0.66650000  0.48540000  0.16444000  1.0
  N  N393  1  0.51730000  0.51930000  0.25982000  1.0
  N  N394  1  0.56306000  0.56120000  0.27258000  1.0
  N  N395  1  0.57556000  0.57214000  0.31636000  1.0
  N  N396  1  0.53952000  0.53766000  0.33376000  1.0
  N  N397  1  0.57166000  0.65505000  0.26539000  1.0
  N  N398  1  0.54544000  0.68667000  0.24737000  1.0
  N  N399  1  0.72174000  0.63491000  0.31541000  1.0
  N  N400  1  0.71294000  0.62268000  0.27190000  1.0
  N  N401  1  0.78224000  0.63133000  0.25685000  1.0
  N  N402  1  0.83950000  0.64933000  0.29019000  1.0
  N  N403  1  0.57826000  0.66614000  0.30916000  1.0
  N  N404  1  0.55610000  0.70511000  0.32127000  1.0
  N  N405  1  0.53442000  0.70141000  0.52453000  1.0
  N  N406  1  0.60112000  0.71493000  0.50805000  1.0
  N  N407  1  0.63884000  0.75600000  0.53056000  1.0
  N  N408  1  0.59662000  0.76951000  0.56241000  1.0
  N  N409  1  0.73136000  0.75360000  0.44486000  1.0
  N  N410  1  0.69244000  0.71006000  0.43224000  1.0
  N  N411  1  0.68612000  0.69759000  0.38857000  1.0
  N  N412  1  0.72022000  0.73250000  0.37112000  1.0
  N  N413  1  0.71780000  0.56890000  0.38422000  1.0
  N  N414  1  0.68534000  0.60442000  0.39554000  1.0
  N  N415  1  0.69502000  0.61769000  0.43915000  1.0
  N  N416  1  0.73264000  0.59097000  0.45813000  1.0
  N  N417  1  0.53780000  0.63382000  0.38914000  1.0
  N  N418  1  0.54800000  0.64384000  0.43290000  1.0
  N  N419  1  0.48004000  0.63270000  0.44866000  1.0
  N  N420  1  0.42180000  0.61584000  0.41594000  1.0
  N  N421  1  0.41708000  0.25610000  0.51816000  1.0
  N  N422  1  0.34482000  0.24255000  0.52827000  1.0
  N  N423  1  0.32282000  0.19713000  0.51863000  1.0
  N  N424  1  0.38176000  0.18040000  0.50234000  1.0
  N  N425  1  0.20100000  0.19707000  0.57801000  1.0
  N  N426  1  0.24162000  0.23838000  0.59794000  1.0
  N  N427  1  0.24396000  0.24255000  0.64153000  1.0
  N  N428  1  0.20528000  0.20370000  0.65158000  1.0
  N  N429  1  0.24648000  0.33381000  0.60359000  1.0
  N  N430  1  0.21686000  0.36639000  0.58937000  1.0
  N  N431  1  0.39290000  0.30783000  0.65295000  1.0
  N  N432  1  0.39018000  0.30427000  0.60971000  1.0
  N  N433  1  0.46188000  0.31753000  0.59883000  1.0
  N  N434  1  0.51486000  0.32970000  0.63460000  1.0
  N  N435  1  0.24822000  0.33875000  0.64719000  1.0
  N  N436  1  0.21930000  0.37443000  0.66297000  1.0
  N  N437  1  0.18920000  0.34832000  0.85916000  1.0
  N  N438  1  0.25794000  0.36321000  0.84539000  1.0
  N  N439  1  0.29342000  0.40379000  0.86985000  1.0
  N  N440  1  0.24734000  0.41572000  0.90022000  1.0
  N  N441  1  0.38582000  0.41140000  0.78982000  1.0
  N  N442  1  0.35378000  0.36750000  0.77258000  1.0
  N  N443  1  0.34974000  0.36051500  0.72887500  1.0
  N  N444  1  0.37968000  0.39930000  0.71608000  1.0
  N  N445  1  0.36680000  0.22599000  0.70849000  1.0
  N  N446  1  0.34566000  0.26445000  0.72429000  1.0
  N  N447  1  0.35296000  0.27178000  0.76812000  1.0
  N  N448  1  0.37810000  0.23784000  0.78244000  1.0
  N  N449  1  0.20014000  0.29483000  0.72037000  1.0
  N  N450  1  0.20752000  0.30008000  0.76411000  1.0
  N  N451  1  0.13810000  0.28701000  0.77775000  1.0
  N  N452  1  0.08182000  0.27352000  0.74370000  1.0
  O  O453  1  0.76438000  0.94637000  0.99653000  1.0
  O  O454  1  0.83486000  0.66670000  0.37044000  1.0
  O  O455  1  0.49972000  0.33041000  0.71299000  1.0
  O  O456  1  0.78986000  0.79684500  0.95396500  1.0
  O  O457  1  0.78798000  0.09203000  0.23037000  1.0
  O  O458  1  0.85244000  0.09637500  0.95889500  1.0
  O  O459  1  0.14240000  0.13760000  0.09396000  1.0
  O  O460  1  0.13646000  0.85244000  0.80689000  1.0
  O  O461  1  0.05630000  0.83399500  0.09815500  1.0
  O  O462  1  0.13232000  0.13116000  0.60686000  1.0
  O  O463  1  0.79102000  0.50979000  0.13719000  1.0
  O  O464  1  0.78146000  0.52522000  0.42956000  1.0
