# generated using pymatgen
data_Ca2H6C36N12O29
_symmetry_space_group_name_H-M   'P 1'
_cell_length_a   25.81400000
_cell_length_b   25.81400000
_cell_length_c   34.79730000
_cell_angle_alpha   84.48700000
_cell_angle_beta   84.48700000
_cell_angle_gamma   89.87300000
_symmetry_Int_Tables_number   1
_chemical_formula_structural   Ca2H6C36N12O29
_chemical_formula_sum   'Ca8 H24 C144 N48 O116'
_cell_volume   22973.02762923
_cell_formula_units_Z   4
loop_
 _symmetry_equiv_pos_site_id
 _symmetry_equiv_pos_as_xyz
  1  'x, y, z'
loop_
 _atom_site_type_symbol
 _atom_site_label
 _atom_site_symmetry_multiplicity
 _atom_site_fract_x
 _atom_site_fract_y
 _atom_site_fract_z
 _atom_site_occupancy
  Ca  Ca0  1  0.17530000  0.29729000  0.86217000  1.0
  Ca  Ca1  1  0.28226000  0.23333000  0.88996000  1.0
  Ca  Ca2  1  0.18439000  0.18517000  0.39185000  1.0
  Ca  Ca3  1  0.23192000  0.30657000  0.40822000  1.0
  Ca  Ca4  1  0.76426000  0.82211000  0.63705000  1.0
  Ca  Ca5  1  0.70527000  0.71934000  0.60064000  1.0
  Ca  Ca6  1  0.72660000  0.83922000  0.11597000  1.0
  Ca  Ca7  1  0.76938000  0.71715000  0.10138000  1.0
  H  H8  1  0.96293000  0.15431000  0.61263000  1.0
  H  H9  1  0.10215000  0.19720000  0.66051000  1.0
  H  H10  1  0.98578000  0.10236000  0.73077000  1.0
  H  H11  1  0.09275000  0.46163000  0.07024000  1.0
  H  H12  1  0.18033000  0.37765000  0.15427000  1.0
  H  H13  1  0.05200000  0.47249000  0.19181000  1.0
  H  H14  1  0.55374000  0.38931000  0.55957000  1.0
  H  H15  1  0.41771000  0.36566000  0.64038000  1.0
  H  H16  1  0.56207000  0.41190000  0.67953000  1.0
  H  H17  1  0.39365000  0.04353000  0.10539000  1.0
  H  H18  1  0.29003000  0.11092000  0.18977000  1.0
  H  H19  1  0.44014000  0.05615000  0.21935000  1.0
  H  H20  1  0.02955000  0.62555000  0.87664000  1.0
  H  H21  1  0.90964000  0.73835000  0.85930000  1.0
  H  H22  1  0.94923000  0.63057000  0.77406000  1.0
  H  H23  1  0.52956000  0.53471000  0.40353000  1.0
  H  H24  1  0.60650000  0.66519000  0.33820000  1.0
  H  H25  1  0.49941000  0.57298000  0.28477000  1.0
  H  H26  1  0.52342000  0.91791000  0.93142000  1.0
  H  H27  1  0.60208000  0.84125000  0.83876000  1.0
  H  H28  1  0.46860000  0.93675000  0.81841000  1.0
  H  H29  1  0.92684000  0.91304000  0.41527000  1.0
  H  H30  1  0.82820000  0.80873000  0.36693000  1.0
  H  H31  1  0.96467000  0.87302000  0.29866000  1.0
  C  C32  1  0.96930000  0.12433000  0.67220000  1.0
  C  C33  1  0.98619000  0.15328000  0.63698000  1.0
  C  C34  1  0.03320000  0.18109000  0.63280000  1.0
  C  C35  1  0.06393000  0.17939000  0.66443000  1.0
  C  C36  1  0.04615000  0.15173000  0.70028000  1.0
  C  C37  1  0.99887000  0.12478000  0.70364000  1.0
  C  C38  1  0.91143000  0.06154000  0.65158000  1.0
  C  C39  1  0.07942000  0.24873000  0.58934000  1.0
  C  C40  1  0.10873000  0.18028000  0.74245000  1.0
  C  C41  1  0.06928000  0.47343000  0.12928000  1.0
  C  C42  1  0.10156000  0.45271000  0.09990000  1.0
  C  C43  1  0.14296000  0.41944000  0.10875000  1.0
  C  C44  1  0.15050000  0.40576000  0.14781000  1.0
  C  C45  1  0.11899000  0.42660000  0.17801000  1.0
  C  C46  1  0.07774000  0.45935000  0.16842000  1.0
  C  C47  1  0.00055000  0.53848000  0.13845000  1.0
  C  C48  1  0.18283000  0.41226000  0.04244000  1.0
  C  C49  1  0.17098000  0.40054000  0.23150000  1.0
  C  C50  1  0.56428000  0.40263000  0.61883000  1.0
  C  C51  1  0.53521000  0.39051000  0.58870000  1.0
  C  C52  1  0.48208000  0.37831000  0.59596000  1.0
  C  C53  1  0.45764000  0.37855000  0.63405000  1.0
  C  C54  1  0.48643000  0.39220000  0.66422000  1.0
  C  C55  1  0.53962000  0.40273000  0.65626000  1.0
  C  C56  1  0.64133000  0.43458000  0.57935000  1.0
  C  C57  1  0.40667000  0.36557000  0.55975000  1.0
  C  C58  1  0.41599000  0.39783000  0.71614000  1.0
  C  C59  1  0.42167000  0.04462000  0.16135000  1.0
  C  C60  1  0.38460000  0.05321000  0.13491000  1.0
  C  C61  1  0.33694000  0.07640000  0.14542000  1.0
  C  C62  1  0.32583000  0.09047000  0.18319000  1.0
  C  C63  1  0.36298000  0.08211000  0.21043000  1.0
  C  C64  1  0.41074000  0.05939000  0.19911000  1.0
  C  C65  1  0.50524000  0.00169000  0.16776000  1.0
  C  C66  1  0.31993000  0.12306000  0.08619000  1.0
  C  C67  1  0.31495000  0.12044000  0.26499000  1.0
  C  C68  1  0.99142000  0.62238000  0.82418000  1.0
  C  C69  1  0.00079000  0.64298000  0.85879000  1.0
  C  C70  1  0.97139000  0.68485000  0.87142000  1.0
  C  C71  1  0.93369000  0.70727000  0.84879000  1.0
  C  C72  1  0.92383000  0.68689000  0.81434000  1.0
  C  C73  1  0.95481000  0.64594000  0.80124000  1.0
  C  C74  1  0.02114000  0.53485000  0.83772000  1.0
  C  C75  1  0.95821000  0.66779000  0.93988000  1.0
  C  C76  1  0.85240000  0.67829000  0.77515000  1.0
  C  C77  1  0.51109000  0.54829000  0.34405000  1.0
  C  C78  1  0.53594000  0.55938000  0.37650000  1.0
  C  C79  1  0.56847000  0.60284000  0.37455000  1.0
  C  C80  1  0.57818000  0.63433000  0.33943000  1.0
  C  C81  1  0.55315000  0.62388000  0.30661000  1.0
  C  C82  1  0.51849000  0.58167000  0.30983000  1.0
  C  C83  1  0.48762000  0.45854000  0.36353000  1.0
  C  C84  1  0.60102000  0.65764000  0.41934000  1.0
  C  C85  1  0.60219000  0.68587000  0.25963000  1.0
  C  C86  1  0.49075000  0.92983000  0.87691000  1.0
  C  C87  1  0.52612000  0.90777000  0.90184000  1.0
  C  C88  1  0.56480000  0.87339000  0.88836000  1.0
  C  C89  1  0.56980000  0.86457000  0.84908000  1.0
  C  C90  1  0.53422000  0.88619000  0.82375000  1.0
  C  C91  1  0.49510000  0.91885000  0.83800000  1.0
  C  C92  1  0.40290000  0.96016000  0.88445000  1.0
  C  C93  1  0.59102000  0.83447000  0.95012000  1.0
  C  C94  1  0.56134000  0.83974000  0.76726000  1.0
  C  C95  1  0.95358000  0.89407000  0.35698000  1.0
  C  C96  1  0.91992000  0.89053000  0.39162000  1.0
  C  C97  1  0.87429000  0.86058000  0.39500000  1.0
  C  C98  1  0.86321000  0.83241000  0.36434000  1.0
  C  C99  1  0.89506000  0.83649000  0.32948000  1.0
  C  C100  1  0.94029000  0.86766000  0.32580000  1.0
  C  C101  1  0.02080000  0.94997000  0.37710000  1.0
  C  C102  1  0.78817000  0.86536000  0.42773000  1.0
  C  C103  1  0.89695000  0.81421000  0.26229000  1.0
  C  C104  1  0.28222000  0.16964000  0.95450000  1.0
  C  C105  1  0.31777000  0.33801000  0.83711000  1.0
  C  C106  1  0.22144000  0.32312000  0.92584000  1.0
  C  C107  1  0.11638000  0.37375000  0.83573000  1.0
  C  C108  1  0.34734000  0.13962000  0.86993000  1.0
  C  C109  1  0.21806000  0.18941000  0.84757000  1.0
  C  C110  1  0.30495000  0.31381000  0.45775000  1.0
  C  C111  1  0.12592000  0.35803000  0.37168000  1.0
  C  C112  1  0.14960000  0.23467000  0.45587000  1.0
  C  C113  1  0.12819000  0.10623000  0.37384000  1.0
  C  C114  1  0.31586000  0.38277000  0.37277000  1.0
  C  C115  1  0.28268000  0.24565000  0.36029000  1.0
  C  C116  1  0.69152000  0.69943000  0.52858000  1.0
  C  C117  1  0.62185000  0.80299000  0.63650000  1.0
  C  C118  1  0.73639000  0.82905000  0.56471000  1.0
  C  C119  1  0.79952000  0.91084000  0.65618000  1.0
  C  C120  1  0.65623000  0.61342000  0.60567000  1.0
  C  C121  1  0.73913000  0.71642000  0.67332000  1.0
  C  C122  1  0.85679000  0.70913000  0.05542000  1.0
  C  C123  1  0.64954000  0.66809000  0.12283000  1.0
  C  C124  1  0.69679000  0.79199000  0.05645000  1.0
  C  C125  1  0.66695000  0.92042000  0.12606000  1.0
  C  C126  1  0.83413000  0.62412000  0.12982000  1.0
  C  C127  1  0.80449000  0.77291000  0.15392000  1.0
  C  C128  1  0.29573000  0.12197000  0.04985000  1.0
  C  C129  1  0.28093000  0.14044000  0.99262000  1.0
  C  C130  1  0.10482000  0.26200000  0.54987000  1.0
  C  C131  1  0.13309000  0.25725000  0.49214000  1.0
  C  C132  1  0.20412000  0.37476000  0.01571000  1.0
  C  C133  1  0.22299000  0.33762000  0.96555000  1.0
  C  C134  1  0.38936000  0.34018000  0.52701000  1.0
  C  C135  1  0.34608000  0.31820000  0.48363000  1.0
  C  C136  1  0.64149000  0.66229000  0.44553000  1.0
  C  C137  1  0.68094000  0.68145000  0.49153000  1.0
  C  C138  1  0.63488000  0.81593000  0.97172000  1.0
  C  C139  1  0.67980000  0.79507000  0.01731000  1.0
  C  C140  1  0.75544000  0.85728000  0.46460000  1.0
  C  C141  1  0.73279000  0.84104000  0.52332000  1.0
  C  C142  1  0.94505000  0.69005000  0.97656000  1.0
  C  C143  1  0.90187000  0.70708000  0.02707000  1.0
  C  C144  1  0.13617000  0.16542000  0.77696000  1.0
  C  C145  1  0.18224000  0.16918000  0.82245000  1.0
  C  C146  1  0.17163000  0.37906000  0.27242000  1.0
  C  C147  1  0.15310000  0.36091000  0.33208000  1.0
  C  C148  1  0.40220000  0.38668000  0.75808000  1.0
  C  C149  1  0.35976000  0.36344000  0.81082000  1.0
  C  C150  1  0.32236000  0.15552000  0.29481000  1.0
  C  C151  1  0.30873000  0.20913000  0.33540000  1.0
  C  C152  1  0.81580000  0.70522000  0.75073000  1.0
  C  C153  1  0.76577000  0.72073000  0.70798000  1.0
  C  C154  1  0.63225000  0.68438000  0.22192000  1.0
  C  C155  1  0.65306000  0.67508000  0.16381000  1.0
  C  C156  1  0.56960000  0.84389000  0.72475000  1.0
  C  C157  1  0.59496000  0.82797000  0.66866000  1.0
  C  C158  1  0.85980000  0.81598000  0.23294000  1.0
  C  C159  1  0.82045000  0.79892000  0.18633000  1.0
  C  C160  1  0.05024000  0.49083000  0.82343000  1.0
  C  C161  1  0.08943000  0.42076000  0.82235000  1.0
  C  C162  1  0.44460000  0.42094000  0.37064000  1.0
  C  C163  1  0.37078000  0.38844000  0.37436000  1.0
  C  C164  1  0.37013000  0.00689000  0.88422000  1.0
  C  C165  1  0.34628000  0.08400000  0.87847000  1.0
  C  C166  1  0.05229000  0.99671000  0.36373000  1.0
  C  C167  1  0.09774000  0.06336000  0.36247000  1.0
  C  C168  1  0.86883000  0.02443000  0.66376000  1.0
  C  C169  1  0.82121000  0.95940000  0.66609000  1.0
  C  C170  1  0.95256000  0.55971000  0.12356000  1.0
  C  C171  1  0.88185000  0.59766000  0.11947000  1.0
  C  C172  1  0.65657000  0.48962000  0.57524000  1.0
  C  C173  1  0.66325000  0.56643000  0.58694000  1.0
  C  C174  1  0.55646000  0.99369000  0.14730000  1.0
  C  C175  1  0.62668000  0.95979000  0.12976000  1.0
  N  N176  1  0.25807000  0.08882000  0.04311000  1.0
  N  N177  1  0.24837000  0.10085000  0.00652000  1.0
  N  N178  1  0.13951000  0.30114000  0.54061000  1.0
  N  N179  1  0.15787000  0.29772000  0.50413000  1.0
  N  N180  1  0.21906000  0.32633000  0.02755000  1.0
  N  N181  1  0.23069000  0.30268000  0.99576000  1.0
  N  N182  1  0.42007000  0.30884000  0.50609000  1.0
  N  N183  1  0.39257000  0.29481000  0.47860000  1.0
  N  N184  1  0.68307000  0.63085000  0.44631000  1.0
  N  N185  1  0.70820000  0.64309000  0.47555000  1.0
  N  N186  1  0.68337000  0.80785000  0.95547000  1.0
  N  N187  1  0.71204000  0.79484000  0.98450000  1.0
  N  N188  1  0.70675000  0.87573000  0.47048000  1.0
  N  N189  1  0.69250000  0.86583000  0.50804000  1.0
  N  N190  1  0.96668000  0.73327000  0.98717000  1.0
  N  N191  1  0.93920000  0.74403000  0.01959000  1.0
  N  N192  1  0.13125000  0.11892000  0.79827000  1.0
  N  N193  1  0.16072000  0.12127000  0.82726000  1.0
  N  N194  1  0.21333000  0.35491000  0.28602000  1.0
  N  N195  1  0.20138000  0.34329000  0.32364000  1.0
  N  N196  1  0.43714000  0.37823000  0.78435000  1.0
  N  N197  1  0.41015000  0.36320000  0.81789000  1.0
  N  N198  1  0.36880000  0.16523000  0.30736000  1.0
  N  N199  1  0.36009000  0.19928000  0.33333333  1.0
  N  N200  1  0.79866000  0.75403000  0.75407000  1.0
  N  N201  1  0.76663000  0.76393000  0.72678000  1.0
  N  N202  1  0.68338000  0.69542000  0.21544000  1.0
  N  N203  1  0.69651000  0.68908000  0.17853000  1.0
  N  N204  1  0.54686000  0.87929000  0.70085000  1.0
  N  N205  1  0.56290000  0.86901000  0.66503000  1.0
  N  N206  1  0.81110000  0.83385000  0.23965000  1.0
  N  N207  1  0.78609000  0.82299000  0.21005000  1.0
  N  N208  1  0.06912000  0.48790000  0.78626000  1.0
  N  N209  1  0.09434000  0.44320000  0.78559000  1.0
  N  N210  1  0.44916000  0.37106000  0.38525000  1.0
  N  N211  1  0.40199000  0.35030000  0.38756000  1.0
  N  N212  1  0.31784000  0.00580000  0.88501000  1.0
  N  N213  1  0.30268000  0.05491000  0.88132000  1.0
  N  N214  1  0.05950000  0.01636000  0.32634000  1.0
  N  N215  1  0.08846000  0.05870000  0.32554000  1.0
  N  N216  1  0.83886000  0.02287000  0.69778000  1.0
  N  N217  1  0.80833000  0.98138000  0.69923000  1.0
  N  N218  1  0.93670000  0.55048000  0.08906000  1.0
  N  N219  1  0.89160000  0.57453000  0.08652000  1.0
  N  N220  1  0.68425000  0.51430000  0.54404000  1.0
  N  N221  1  0.68846000  0.56340000  0.55154000  1.0
  N  N222  1  0.57220000  0.01737000  0.11194000  1.0
  N  N223  1  0.61686000  0.99565000  0.10071000  1.0
  O  O224  1  0.92536000  0.09486000  0.67677000  1.0
  O  O225  1  0.04939000  0.20513000  0.59714000  1.0
  O  O226  1  0.07467000  0.14604000  0.73125000  1.0
  O  O227  1  0.93600000  0.05943000  0.61993000  1.0
  O  O228  1  0.08509000  0.27756000  0.61455000  1.0
  O  O229  1  0.11499000  0.22394000  0.72567000  1.0
  O  O230  1  0.02876000  0.50352000  0.11835000  1.0
  O  O231  1  0.17371000  0.39661000  0.08109000  1.0
  O  O232  1  0.12544000  0.41400000  0.21635000  1.0
  O  O233  1  0.01508000  0.55383000  0.16780000  1.0
  O  O234  1  0.17457000  0.45696000  0.02967000  1.0
  O  O235  1  0.21263000  0.40733000  0.21175000  1.0
  O  O236  1  0.61576000  0.41450000  0.61324000  1.0
  O  O237  1  0.45780000  0.36228000  0.56614000  1.0
  O  O238  1  0.46625000  0.39227000  0.70177000  1.0
  O  O239  1  0.65264000  0.40708000  0.55316000  1.0
  O  O240  1  0.37609000  0.39105000  0.57916000  1.0
  O  O241  1  0.38245000  0.41230000  0.69511000  1.0
  O  O242  1  0.46906000  0.02773000  0.14778000  1.0
  O  O243  1  0.30432000  0.09004000  0.11795000  1.0
  O  O244  1  0.35764000  0.10032000  0.24599000  1.0
  O  O245  1  0.49474000  0.98187000  0.20091000  1.0
  O  O246  1  0.35518000  0.15435000  0.08735000  1.0
  O  O247  1  0.27097000  0.10879000  0.25858000  1.0
  O  O248  1  0.01491000  0.57836000  0.81337000  1.0
  O  O249  1  0.97422000  0.69945000  0.90747000  1.0
  O  O250  1  0.88328000  0.70609000  0.79535000  1.0
  O  O251  1  0.00166000  0.53119000  0.87134000  1.0
  O  O252  1  0.94954000  0.62152000  0.93816000  1.0
  O  O253  1  0.85373000  0.63074000  0.77760000  1.0
  O  O254  1  0.47937000  0.50628000  0.34515000  1.0
  O  O255  1  0.59377000  0.61087000  0.40578000  1.0
  O  O256  1  0.56434000  0.64964000  0.27077000  1.0
  O  O257  1  0.53064000  0.44606000  0.37308000  1.0
  O  O258  1  0.57285000  0.69455000  0.41157000  1.0
  O  O259  1  0.61150000  0.71971000  0.28027000  1.0
  O  O260  1  0.45414000  0.96339000  0.89009000  1.0
  O  O261  1  0.59947000  0.85011000  0.91153000  1.0
  O  O262  1  0.53773000  0.87920000  0.78530000  1.0
  O  O263  1  0.38346000  0.91830000  0.87984000  1.0
  O  O264  1  0.54732000  0.83443000  0.96710000  1.0
  O  O265  1  0.57422000  0.79984000  0.78565000  1.0
  O  O266  1  0.99577000  0.92637000  0.35075000  1.0
  O  O267  1  0.84072000  0.86043000  0.42748000  1.0
  O  O268  1  0.87685000  0.81421000  0.29971000  1.0
  O  O269  1  0.01887000  0.93223000  0.41105000  1.0
  O  O270  1  0.76815000  0.87940000  0.39803000  1.0
  O  O271  1  0.94352000  0.80914000  0.25354000  1.0
  O  O272  1  0.31288000  0.21094000  0.94682000  1.0
  O  O273  1  0.25199000  0.15921000  0.92727000  1.0
  O  O274  1  0.32879000  0.30957000  0.86879000  1.0
  O  O275  1  0.27315000  0.33152000  0.82317000  1.0
  O  O276  1  0.21182000  0.27531000  0.91961000  1.0
  O  O277  1  0.21787000  0.35678000  0.89558000  1.0
  O  O278  1  0.11378000  0.35727000  0.87314000  1.0
  O  O279  1  0.14819000  0.34864000  0.81181000  1.0
  O  O280  1  0.35052000  0.19103000  0.85904000  1.0
  O  O281  1  0.22975000  0.16430000  0.88080000  1.0
  O  O282  1  0.23517000  0.23767000  0.84024000  1.0
  O  O283  1  0.26019000  0.33892000  0.46176000  1.0
  O  O284  1  0.31173000  0.28545000  0.42779000  1.0
  O  O285  1  0.14808000  0.33998000  0.40314000  1.0
  O  O286  1  0.07801000  0.37519000  0.37594000  1.0
  O  O287  1  0.19878000  0.23130000  0.44382000  1.0
  O  O288  1  0.11772000  0.22103000  0.43132000  1.0
  O  O289  1  0.13751000  0.11048000  0.41030000  1.0
  O  O290  1  0.14790000  0.14310000  0.34747000  1.0
  O  O291  1  0.26434000  0.37993000  0.37073000  1.0
  O  O292  1  0.30617000  0.26451000  0.38839000  1.0
  O  O293  1  0.23217000  0.25442000  0.36043000  1.0
  O  O294  1  0.66206000  0.73394000  0.54621000  1.0
  O  O295  1  0.72825000  0.67700000  0.54818000  1.0
  O  O296  1  0.66056000  0.77135000  0.64391000  1.0
  O  O297  1  0.60714000  0.81062000  0.60134000  1.0
  O  O298  1  0.76161000  0.78811000  0.57865000  1.0
  O  O299  1  0.71735000  0.86051000  0.59008000  1.0
  O  O300  1  0.81605000  0.89199000  0.62310000  1.0
  O  O301  1  0.76406000  0.88309000  0.67973000  1.0
  O  O302  1  0.64597000  0.65568000  0.62470000  1.0
  O  O303  1  0.75595000  0.68466000  0.64789000  1.0
  O  O304  1  0.70971000  0.75381000  0.65935000  1.0
  O  O305  1  0.81352000  0.68410000  0.05079000  1.0
  O  O306  1  0.85549000  0.73785000  0.08524000  1.0
  O  O307  1  0.68767000  0.68175000  0.09577000  1.0
  O  O308  1  0.60611000  0.64976000  0.11247000  1.0
  O  O309  1  0.74633000  0.79214000  0.06296000  1.0
  O  O310  1  0.66376000  0.80267000  0.08573000  1.0
  O  O311  1  0.69194000  0.91371000  0.09175000  1.0
  O  O312  1  0.67518000  0.88577000  0.15557000  1.0
  O  O313  1  0.78819000  0.64475000  0.14191000  1.0
  O  O314  1  0.83752000  0.75673000  0.12593000  1.0
  O  O315  1  0.75466000  0.76751000  0.14990000  1.0
  O  O316  1  0.30975000  0.15350000  0.01904000  1.0
  O  O317  1  0.10089000  0.23457000  0.52029000  1.0
  O  O318  1  0.20614000  0.38196000  0.97760000  1.0
  O  O319  1  0.34370000  0.34631000  0.51334000  1.0
  O  O320  1  0.63962000  0.69341000  0.47336000  1.0
  O  O321  1  0.63252000  0.80834000  0.00964000  1.0
  O  O322  1  0.77175000  0.83611000  0.49693000  1.0
  O  O323  1  0.90507000  0.67421000  0.00066000  1.0
  O  O324  1  0.16738000  0.19640000  0.79169000  1.0
  O  O325  1  0.13425000  0.38294000  0.30056000  1.0
  O  O326  1  0.35474000  0.37739000  0.77409000  1.0
  O  O327  1  0.28523000  0.18245000  0.31183000  1.0
  O  O328  1  0.79591000  0.68462000  0.72245000  1.0
  O  O329  1  0.61333000  0.67135000  0.19049000  1.0
  O  O330  1  0.59915000  0.81236000  0.70517000  1.0
  O  O331  1  0.86597000  0.79403000  0.20025000  1.0
  O  O332  1  0.06267000  0.44987000  0.84571000  1.0
  O  O333  1  0.39654000  0.43190000  0.36391000  1.0
  O  O334  1  0.38795000  0.05489000  0.87994000  1.0
  O  O335  1  0.07565000  0.02540000  0.38623000  1.0
  O  O336  1  0.85832000  0.98549000  0.64430000  1.0
  O  O337  1  0.91890000  0.58854000  0.14250000  1.0
  O  O338  1  0.64347000  0.52144000  0.60161000  1.0
  O  O339  1  0.58956000  0.95803000  0.15837000  1.0
