# generated using pymatgen
data_Cd2SiH39C67O11
_symmetry_space_group_name_H-M   'P 1'
_cell_length_a   23.60390000
_cell_length_b   24.70045000
_cell_length_c   52.23970000
_cell_angle_alpha   82.15700000
_cell_angle_beta   89.99300000
_cell_angle_gamma   89.66700000
_symmetry_Int_Tables_number   1
_chemical_formula_structural   Cd2SiH39C67O11
_chemical_formula_sum   'Cd8 Si4 H156 C268 O44'
_cell_volume   30171.73144252
_cell_formula_units_Z   4
loop_
 _symmetry_equiv_pos_site_id
 _symmetry_equiv_pos_as_xyz
  1  'x, y, z'
loop_
 _atom_site_type_symbol
 _atom_site_label
 _atom_site_symmetry_multiplicity
 _atom_site_fract_x
 _atom_site_fract_y
 _atom_site_fract_z
 _atom_site_occupancy
  C  C0  1  0.53354000  0.93396000  0.32230000  1.0
  C  C1  1  0.50184000  0.90950000  0.34345000  1.0
  C  C2  1  0.49444000  0.85262000  0.34746000  1.0
  C  C3  1  0.51944000  0.81962000  0.33058000  1.0
  C  C4  1  0.55224000  0.84432000  0.30989000  1.0
  C  C5  1  0.55856000  0.90082000  0.30559000  1.0
  C  C6  1  0.59768000  0.02708000  0.29194000  1.0
  C  C7  1  0.68860000  0.04310000  0.25725000  1.0
  C  C8  1  0.63664000  0.06944000  0.25114000  1.0
  C  C9  1  0.59136000  0.06152000  0.26843000  1.0
  C  C10  1  0.53832000  0.05016000  0.34098000  1.0
  C  C11  1  0.58842000  0.07724000  0.34603000  1.0
  C  C12  1  0.58730000  0.11910000  0.36149000  1.0
  C  C13  1  0.53612000  0.13442000  0.37213000  1.0
  C  C14  1  0.48704000  0.10408000  0.36908000  1.0
  C  C15  1  0.48812000  0.06222000  0.35352000  1.0
  C  C16  1  0.46848000  0.02820000  0.29528000  1.0
  C  C17  1  0.09762000  0.88478000  0.64062000  1.0
  C  C18  1  0.04144000  0.88792000  0.63173000  1.0
  C  C19  1  0.01556000  0.84212000  0.62387000  1.0
  C  C20  1  0.04534000  0.79250000  0.62508000  1.0
  C  C21  1  0.10114000  0.78912000  0.63445000  1.0
  C  C22  1  0.12714000  0.83500000  0.64210000  1.0
  C  C23  1  0.16928000  0.93638000  0.68046000  1.0
  C  C24  1  0.15526000  0.89174000  0.69888000  1.0
  C  C25  1  0.18330000  0.88346000  0.72270000  1.0
  C  C26  1  0.22524000  0.92008000  0.72848000  1.0
  C  C27  1  0.23852000  0.96516000  0.71013000  1.0
  C  C28  1  0.21050000  0.97342000  0.68637000  1.0
  C  C29  1  0.08856000  0.00806000  0.64445000  1.0
  C  C30  1  0.07152000  0.03198000  0.66611000  1.0
  C  C31  1  0.03938000  0.08020000  0.66296000  1.0
  C  C32  1  0.02404000  0.10490000  0.63812000  1.0
  C  C33  1  0.03970000  0.08010000  0.61656000  1.0
  C  C34  1  0.07186000  0.03206000  0.61971000  1.0
  C  C35  1  0.19324000  0.95970000  0.62359000  1.0
  C  C36  1  0.54250000  0.40450000  0.84801000  1.0
  C  C37  1  0.57712000  0.38752000  0.86949000  1.0
  C  C38  1  0.57390000  0.33384000  0.88211000  1.0
  C  C39  1  0.53632000  0.29668000  0.87322000  1.0
  C  C40  1  0.50044000  0.31446000  0.85231000  1.0
  C  C41  1  0.50388000  0.36774000  0.83966000  1.0
  C  C42  1  0.60842000  0.46850000  0.80503000  1.0
  C  C43  1  0.65932000  0.44164000  0.81285000  1.0
  C  C44  1  0.70328000  0.43900000  0.79515000  1.0
  C  C45  1  0.69674000  0.46306000  0.76941000  1.0
  C  C46  1  0.64608000  0.49058000  0.76169000  1.0
  C  C47  1  0.60214000  0.49312000  0.77936000  1.0
  C  C48  1  0.56840000  0.52728000  0.84874000  1.0
  C  C49  1  0.60088000  0.57192000  0.83783000  1.0
  C  C50  1  0.60534000  0.61818000  0.85028000  1.0
  C  C51  1  0.57720000  0.62054000  0.87372000  1.0
  C  C52  1  0.54798000  0.57442000  0.88557000  1.0
  C  C53  1  0.54312000  0.52812000  0.87299000  1.0
  C  C54  1  0.48290000  0.49448000  0.81189000  1.0
  C  C55  1  0.14420000  0.39914000  0.13466000  1.0
  C  C56  1  0.09704000  0.38030000  0.14966000  1.0
  C  C57  1  0.07912000  0.32584000  0.15063000  1.0
  C  C58  1  0.10776000  0.28980000  0.13635000  1.0
  C  C59  1  0.15342000  0.30942000  0.12068000  1.0
  C  C60  1  0.17150000  0.36332000  0.11989000  1.0
  C  C61  1  0.22034000  0.46328000  0.16686000  1.0
  C  C62  1  0.20290000  0.43080000  0.18962000  1.0
  C  C63  1  0.23490000  0.42894000  0.21227000  1.0
  C  C64  1  0.28426000  0.46030000  0.21257000  1.0
  C  C65  1  0.30198000  0.49226000  0.18975000  1.0
  C  C66  1  0.27032000  0.49374000  0.16710000  1.0
  C  C67  1  0.12950000  0.52844000  0.13594000  1.0
  C  C68  1  0.15330000  0.57772000  0.14123000  1.0
  C  C69  1  0.12256000  0.62652000  0.13687000  1.0
  C  C70  1  0.06686000  0.62724000  0.12746000  1.0
  C  C71  1  0.04230000  0.57754000  0.12290000  1.0
  C  C72  1  0.07346000  0.52848000  0.12705000  1.0
  C  C73  1  0.22546000  0.48512000  0.10847000  1.0
  C  C74  1  0.08692000  0.99212000  0.05537000  1.0
  C  C75  1  0.99496000  0.87556000  0.12984000  1.0
  C  C76  1  0.83094000  0.96720000  0.16561000  1.0
  C  C77  1  0.88838000  0.95842000  0.07464000  1.0
  C  C78  1  0.98042000  0.06926000  0.12038000  1.0
  C  C79  1  0.58934000  0.93042000  0.94907000  1.0
  C  C80  1  0.50368000  0.04302000  0.87643000  1.0
  C  C81  1  0.34236000  0.96962000  0.83216000  1.0
  C  C82  1  0.38000000  0.96724000  0.92702000  1.0
  C  C83  1  0.46922000  0.85052000  0.88873000  1.0
  C  C84  1  0.06706000  0.49006000  0.54929000  1.0
  C  C85  1  0.99104000  0.36216000  0.62284000  1.0
  C  C86  1  0.81972000  0.42704000  0.66525000  1.0
  C  C87  1  0.87322000  0.43758000  0.57288000  1.0
  C  C88  1  0.96574000  0.54784000  0.62396000  1.0
  C  C89  1  0.57186000  0.43250000  0.44712000  1.0
  C  C90  1  0.49022000  0.57098000  0.38104000  1.0
  C  C91  1  0.34932000  0.49050000  0.32757000  1.0
  C  C92  1  0.36722000  0.48070000  0.42280000  1.0
  C  C93  1  0.47698000  0.38500000  0.37791000  1.0
  C  C94  1  0.73348000  0.04512000  0.23754000  1.0
  C  C95  1  0.81190000  0.09422000  0.21558000  1.0
  C  C96  1  0.81782000  0.05412000  0.19940000  1.0
  C  C97  1  0.77018000  0.08978000  0.23456000  1.0
  C  C98  1  0.78698000  0.96668000  0.18569000  1.0
  C  C99  1  0.70590000  0.91982000  0.20681000  1.0
  C  C100  1  0.70134000  0.95920000  0.22337000  1.0
  C  C101  1  0.74806000  0.92360000  0.18808000  1.0
  C  C102  1  0.25806000  0.90928000  0.75287000  1.0
  C  C103  1  0.32420000  0.84956000  0.77895000  1.0
  C  C104  1  0.32868000  0.88708000  0.79645000  1.0
  C  C105  1  0.29788000  0.93668000  0.79272000  1.0
  C  C106  1  0.28964000  0.86062000  0.75730000  1.0
  C  C107  1  0.30160000  0.97530000  0.81049000  1.0
  C  C108  1  0.22876000  0.03072000  0.78662000  1.0
  C  C109  1  0.22612000  0.99430000  0.76853000  1.0
  C  C110  1  0.26070000  0.94712000  0.77104000  1.0
  C  C111  1  0.74382000  0.46196000  0.75080000  1.0
  C  C112  1  0.83760000  0.49416000  0.73756000  1.0
  C  C113  1  0.83214000  0.47238000  0.71448000  1.0
  C  C114  1  0.78316000  0.44318000  0.70928000  1.0
  C  C115  1  0.79396000  0.48902000  0.75558000  1.0
  C  C116  1  0.77658000  0.42082000  0.68579000  1.0
  C  C117  1  0.68394000  0.38648000  0.69969000  1.0
  C  C118  1  0.68970000  0.40798000  0.72283000  1.0
  C  C119  1  0.73848000  0.43764000  0.72780000  1.0
  C  C120  1  0.72656000  0.39348000  0.68118000  1.0
  C  C121  1  0.31888000  0.45836000  0.23637000  1.0
  C  C122  1  0.40932000  0.43514000  0.25733000  1.0
  C  C123  1  0.38960000  0.45230000  0.28002000  1.0
  C  C124  1  0.33420000  0.47340000  0.28145000  1.0
  C  C125  1  0.37452000  0.43832000  0.23569000  1.0
  C  C126  1  0.31356000  0.49100000  0.30448000  1.0
  C  C127  1  0.22300000  0.51380000  0.28385000  1.0
  C  C128  1  0.24294000  0.49782000  0.26090000  1.0
  C  C129  1  0.29818000  0.47630000  0.25938000  1.0
  C  C130  1  0.25776000  0.51000000  0.30554000  1.0
  C  C131  1  0.03794000  0.68070000  0.11912000  1.0
  C  C132  1  0.99834000  0.74254000  0.08328000  1.0
  C  C133  1  0.99612000  0.78470000  0.09841000  1.0
  C  C134  1  0.01398000  0.77610000  0.12441000  1.0
  C  C135  1  0.01944000  0.69136000  0.09337000  1.0
  C  C136  1  0.01138000  0.81878000  0.14019000  1.0
  C  C137  1  0.04126000  0.75468000  0.17718000  1.0
  C  C138  1  0.04602000  0.71304000  0.16177000  1.0
  C  C139  1  0.03332000  0.72288000  0.13517000  1.0
  C  C140  1  0.02434000  0.80704000  0.16653000  1.0
  C  C141  1  0.53304000  0.23930000  0.88578000  1.0
  C  C142  1  0.50160000  0.17698000  0.92287000  1.0
  C  C143  1  0.50496000  0.13330000  0.90862000  1.0
  C  C144  1  0.52498000  0.14100000  0.88291000  1.0
  C  C145  1  0.51510000  0.22958000  0.91155000  1.0
  C  C146  1  0.52760000  0.09740000  0.86769000  1.0
  C  C147  1  0.56698000  0.15892000  0.83201000  1.0
  C  C148  1  0.56318000  0.20228000  0.84636000  1.0
  C  C149  1  0.54078000  0.19458000  0.87163000  1.0
  C  C150  1  0.54834000  0.10726000  0.84234000  1.0
  C  C151  1  0.09498000  0.23024000  0.13954000  1.0
  C  C152  1  0.13014000  0.13802000  0.15303000  1.0
  C  C153  1  0.08124000  0.11602000  0.14383000  1.0
  C  C154  1  0.03796000  0.15030000  0.13209000  1.0
  C  C155  1  0.13724000  0.19434000  0.15069000  1.0
  C  C156  1  0.98804000  0.12836000  0.12226000  1.0
  C  C157  1  0.95054000  0.22056000  0.11118000  1.0
  C  C158  1  0.00018000  0.24258000  0.11965000  1.0
  C  C159  1  0.04428000  0.20830000  0.13052000  1.0
  C  C160  1  0.94442000  0.16422000  0.11249000  1.0
  C  C161  1  0.57332000  0.67354000  0.88384000  1.0
  C  C162  1  0.62340000  0.74808000  0.89928000  1.0
  C  C163  1  0.57460000  0.78038000  0.89662000  1.0
  C  C164  1  0.52314000  0.75976000  0.88821000  1.0
  C  C165  1  0.62294000  0.69530000  0.89285000  1.0
  C  C166  1  0.47270000  0.79218000  0.88483000  1.0
  C  C167  1  0.42336000  0.71666000  0.86946000  1.0
  C  C168  1  0.47234000  0.68508000  0.87209000  1.0
  C  C169  1  0.52270000  0.70538000  0.88169000  1.0
  C  C170  1  0.42346000  0.76946000  0.87568000  1.0
  C  C171  1  0.99312000  0.15762000  0.63432000  1.0
  C  C172  1  0.90658000  0.20638000  0.62053000  1.0
  C  C173  1  0.93288000  0.25620000  0.62205000  1.0
  C  C174  1  0.98980000  0.25808000  0.63015000  1.0
  C  C175  1  0.93640000  0.15756000  0.62647000  1.0
  C  C176  1  0.01806000  0.30852000  0.63103000  1.0
  C  C177  1  0.10456000  0.25930000  0.64477000  1.0
  C  C178  1  0.07772000  0.20964000  0.64377000  1.0
  C  C179  1  0.02030000  0.20798000  0.63645000  1.0
  C  C180  1  0.07528000  0.30824000  0.63827000  1.0
  C  C181  1  0.50676000  0.76030000  0.33238000  1.0
  C  C182  1  0.47246000  0.68686000  0.31008000  1.0
  C  C183  1  0.48332000  0.64902000  0.33175000  1.0
  C  C184  1  0.50408000  0.66570000  0.35478000  1.0
  C  C185  1  0.48312000  0.74190000  0.31049000  1.0
  C  C186  1  0.51270000  0.62778000  0.37765000  1.0
  C  C187  1  0.55722000  0.69966000  0.39800000  1.0
  C  C188  1  0.54610000  0.73762000  0.37636000  1.0
  C  C189  1  0.51858000  0.72188000  0.35464000  1.0
  C  C190  1  0.54026000  0.64562000  0.39880000  1.0
  C  C191  1  0.01986000  0.74522000  0.61477000  1.0
  C  C192  1  0.98900000  0.70612000  0.57698000  1.0
  C  C193  1  0.97934000  0.65608000  0.59208000  1.0
  C  C194  1  0.98936000  0.64930000  0.61895000  1.0
  C  C195  1  0.00940000  0.75018000  0.58814000  1.0
  C  C196  1  0.97934000  0.59862000  0.63472000  1.0
  C  C197  1  0.00176000  0.64048000  0.67293000  1.0
  C  C198  1  0.01408000  0.68968000  0.65764000  1.0
  C  C199  1  0.00836000  0.69500000  0.63056000  1.0
  C  C200  1  0.98470000  0.59538000  0.66164000  1.0
  C  C201  1  0.53302000  0.18604000  0.38356000  1.0
  C  C202  1  0.56162000  0.23704000  0.41782000  1.0
  C  C203  1  0.53608000  0.28424000  0.40513000  1.0
  C  C204  1  0.50730000  0.28366000  0.38147000  1.0
  C  C205  1  0.56008000  0.18838000  0.40721000  1.0
  C  C206  1  0.48082000  0.33140000  0.36797000  1.0
  C  C207  1  0.45718000  0.28044000  0.33272000  1.0
  C  C208  1  0.48212000  0.23362000  0.34575000  1.0
  C  C209  1  0.50690000  0.23390000  0.37031000  1.0
  C  C210  1  0.45628000  0.32854000  0.34365000  1.0
  C  C211  1  0.63914000  0.93682000  0.99111000  1.0
  C  C212  1  0.69018000  0.93654000  0.00469000  1.0
  C  C213  1  0.74132000  0.92668000  0.99325000  1.0
  C  C214  1  0.69382000  0.91580000  0.95378000  1.0
  C  C215  1  0.74442000  0.91580000  0.96784000  1.0
  C  C216  1  0.70096000  0.94704000  0.02963000  1.0
  C  C217  1  0.85150000  0.94904000  0.05277000  1.0
  C  C218  1  0.79178000  0.95292000  0.05467000  1.0
  C  C219  1  0.75916000  0.94410000  0.03333000  1.0
  C  C220  1  0.78390000  0.93152000  0.01091000  1.0
  C  C221  1  0.84240000  0.92718000  0.00845000  1.0
  C  C222  1  0.87620000  0.93608000  0.02954000  1.0
  C  C223  1  0.64104000  0.92680000  0.96511000  1.0
  C  C224  1  0.33036000  0.96050000  0.97003000  1.0
  C  C225  1  0.28304000  0.97364000  0.98410000  1.0
  C  C226  1  0.28728000  0.01374000  0.93184000  1.0
  C  C227  1  0.24074000  0.02688000  0.94647000  1.0
  C  C228  1  0.26846000  0.95742000  0.00972000  1.0
  C  C229  1  0.18088000  0.97362000  0.03554000  1.0
  C  C230  1  0.21566000  0.97976000  0.01370000  1.0
  C  C231  1  0.14616000  0.03674000  0.98851000  1.0
  C  C232  1  0.11058000  0.03148000  0.01014000  1.0
  C  C233  1  0.33228000  0.98056000  0.94335000  1.0
  C  C234  1  0.62140000  0.43236000  0.48973000  1.0
  C  C235  1  0.67174000  0.42560000  0.50390000  1.0
  C  C236  1  0.72106000  0.40832000  0.49319000  1.0
  C  C237  1  0.67270000  0.40216000  0.45338000  1.0
  C  C238  1  0.72270000  0.39582000  0.46801000  1.0
  C  C239  1  0.68400000  0.43688000  0.52858000  1.0
  C  C240  1  0.83454000  0.42666000  0.55196000  1.0
  C  C241  1  0.77552000  0.43590000  0.55372000  1.0
  C  C242  1  0.74146000  0.42744000  0.53277000  1.0
  C  C243  1  0.76414000  0.40968000  0.51097000  1.0
  C  C244  1  0.82188000  0.39944000  0.50882000  1.0
  C  C245  1  0.85712000  0.40818000  0.52946000  1.0
  C  C246  1  0.62204000  0.42114000  0.46389000  1.0
  C  C247  1  0.31556000  0.47386000  0.46529000  1.0
  C  C248  1  0.26602000  0.48312000  0.47867000  1.0
  C  C249  1  0.21892000  0.50724000  0.46608000  1.0
  C  C250  1  0.26732000  0.51380000  0.42555000  1.0
  C  C251  1  0.21834000  0.52306000  0.43950000  1.0
  C  C252  1  0.25292000  0.47038000  0.50465000  1.0
  C  C253  1  0.10632000  0.49890000  0.52723000  1.0
  C  C254  1  0.16312000  0.48044000  0.52984000  1.0
  C  C255  1  0.19730000  0.48646000  0.50785000  1.0
  C  C256  1  0.17662000  0.50956000  0.48410000  1.0
  C  C257  1  0.12120000  0.52892000  0.48101000  1.0
  C  C258  1  0.08602000  0.52364000  0.50282000  1.0
  C  C259  1  0.31624000  0.48926000  0.43819000  1.0
  C  C260  1  0.65064000  0.00298000  0.29855000  1.0
  C  C261  1  0.69582000  0.01074000  0.28123000  1.0
  C  C262  1  0.78220000  0.00792000  0.20212000  1.0
  C  C263  1  0.73890000  0.00382000  0.22129000  1.0
  C  C264  1  0.26614000  0.02146000  0.80737000  1.0
  C  C265  1  0.23972000  0.00608000  0.97257000  1.0
  C  C266  1  0.12718000  0.99960000  0.03364000  1.0
  C  C267  1  0.19836000  0.01010000  0.99084000  1.0
  Cd  Cd268  1  0.01596000  0.97726000  0.08990000  1.0
  Cd  Cd269  1  0.90312000  0.96796000  0.13186000  1.0
  Cd  Cd270  1  0.50610000  0.94208000  0.92067000  1.0
  Cd  Cd271  1  0.41062000  0.96144000  0.86820000  1.0
  Cd  Cd272  1  0.99838000  0.46980000  0.58454000  1.0
  Cd  Cd273  1  0.89152000  0.44200000  0.63114000  1.0
  Cd  Cd274  1  0.49222000  0.45796000  0.41776000  1.0
  Cd  Cd275  1  0.41126000  0.48686000  0.36530000  1.0
  H  H276  1  0.48104000  0.93432000  0.35625000  1.0
  H  H277  1  0.46784000  0.83460000  0.36323000  1.0
  H  H278  1  0.57134000  0.81994000  0.29642000  1.0
  H  H279  1  0.58150000  0.91830000  0.28855000  1.0
  H  H280  1  0.65652000  0.97658000  0.31669000  1.0
  H  H281  1  0.73574000  0.99004000  0.28612000  1.0
  H  H282  1  0.63058000  0.09444000  0.23263000  1.0
  H  H283  1  0.55122000  0.08110000  0.26297000  1.0
  H  H284  1  0.62790000  0.06874000  0.33684000  1.0
  H  H285  1  0.62566000  0.14184000  0.36378000  1.0
  H  H286  1  0.44722000  0.11518000  0.37732000  1.0
  H  H287  1  0.44896000  0.04180000  0.35007000  1.0
  H  H288  1  0.46464000  0.07332000  0.29101000  1.0
  H  H289  1  0.01774000  0.92584000  0.63030000  1.0
  H  H290  1  0.97258000  0.84554000  0.61654000  1.0
  H  H291  1  0.12500000  0.75134000  0.63521000  1.0
  H  H292  1  0.17070000  0.83176000  0.64869000  1.0
  H  H293  1  0.12316000  0.86292000  0.69489000  1.0
  H  H294  1  0.17262000  0.84828000  0.73656000  1.0
  H  H295  1  0.27122000  0.99350000  0.71406000  1.0
  H  H296  1  0.22170000  0.00844000  0.67253000  1.0
  H  H297  1  0.08354000  0.01404000  0.68543000  1.0
  H  H298  1  0.02732000  0.09878000  0.67979000  1.0
  H  H299  1  0.02802000  0.09862000  0.59727000  1.0
  H  H300  1  0.08418000  0.01414000  0.60273000  1.0
  H  H301  1  0.22518000  0.92634000  0.62690000  1.0
  H  H302  1  0.21380000  0.99928000  0.62536000  1.0
  H  H303  1  0.17540000  0.96106000  0.60387000  1.0
  H  H304  1  0.60744000  0.41522000  0.87615000  1.0
  H  H305  1  0.60148000  0.32098000  0.89840000  1.0
  H  H306  1  0.47036000  0.28668000  0.84549000  1.0
  H  H307  1  0.47690000  0.37954000  0.82307000  1.0
  H  H308  1  0.66550000  0.42304000  0.83265000  1.0
  H  H309  1  0.74238000  0.41824000  0.80152000  1.0
  H  H310  1  0.64076000  0.51032000  0.74201000  1.0
  H  H311  1  0.56368000  0.51484000  0.77288000  1.0
  H  H312  1  0.62044000  0.57256000  0.81905000  1.0
  H  H313  1  0.62812000  0.65336000  0.84088000  1.0
  H  H314  1  0.52604000  0.57564000  0.90370000  1.0
  H  H315  1  0.51740000  0.49430000  0.88161000  1.0
  H  H316  1  0.47428000  0.46824000  0.79673000  1.0
  H  H317  1  0.48608000  0.53764000  0.80282000  1.0
  H  H318  1  0.44774000  0.49076000  0.82610000  1.0
  H  H319  1  0.07562000  0.40690000  0.16145000  1.0
  H  H320  1  0.04426000  0.31136000  0.16316000  1.0
  H  H321  1  0.17642000  0.28236000  0.10966000  1.0
  H  H322  1  0.20830000  0.37592000  0.10832000  1.0
  H  H323  1  0.16454000  0.40698000  0.19009000  1.0
  H  H324  1  0.22102000  0.40332000  0.22960000  1.0
  H  H325  1  0.34022000  0.51638000  0.18953000  1.0
  H  H326  1  0.28492000  0.51926000  0.14992000  1.0
  H  H327  1  0.19678000  0.57936000  0.14758000  1.0
  H  H328  1  0.14332000  0.66420000  0.13980000  1.0
  H  H329  1  0.99966000  0.57700000  0.11528000  1.0
  H  H330  1  0.05448000  0.49124000  0.12238000  1.0
  H  H331  1  0.26290000  0.45750000  0.11035000  1.0
  H  H332  1  0.23992000  0.52796000  0.10762000  1.0
  H  H333  1  0.20232000  0.48080000  0.09038000  1.0
  H  H334  1  0.83958000  0.12934000  0.21322000  1.0
  H  H335  1  0.67652000  0.88604000  0.20852000  1.0
  H  H336  1  0.84980000  0.06062000  0.18454000  1.0
  H  H337  1  0.66770000  0.95448000  0.23756000  1.0
  H  H338  1  0.76614000  0.12164000  0.24681000  1.0
  H  H339  1  0.75076000  0.89210000  0.17557000  1.0
  H  H340  1  0.34806000  0.81168000  0.78213000  1.0
  H  H341  1  0.20180000  0.06666000  0.78446000  1.0
  H  H342  1  0.35548000  0.87598000  0.81313000  1.0
  H  H343  1  0.19590000  0.00304000  0.75292000  1.0
  H  H344  1  0.28810000  0.83124000  0.74369000  1.0
  H  H345  1  0.26802000  0.05108000  0.82085000  1.0
  H  H346  1  0.87558000  0.51618000  0.74129000  1.0
  H  H347  1  0.64602000  0.36426000  0.69607000  1.0
  H  H348  1  0.86660000  0.47934000  0.70085000  1.0
  H  H349  1  0.65564000  0.40096000  0.73671000  1.0
  H  H350  1  0.79866000  0.50772000  0.77305000  1.0
  H  H351  1  0.72080000  0.37658000  0.66327000  1.0
  H  H352  1  0.45196000  0.41908000  0.25653000  1.0
  H  H353  1  0.18030000  0.52966000  0.28476000  1.0
  H  H354  1  0.41814000  0.44856000  0.29638000  1.0
  H  H355  1  0.21460000  0.50266000  0.24448000  1.0
  H  H356  1  0.39098000  0.42450000  0.21831000  1.0
  H  H357  1  0.24142000  0.52318000  0.32309000  1.0
  H  H358  1  0.98436000  0.74986000  0.06336000  1.0
  H  H359  1  0.05094000  0.74628000  0.19760000  1.0
  H  H360  1  0.97926000  0.82364000  0.08960000  1.0
  H  H361  1  0.05844000  0.67290000  0.17106000  1.0
  H  H362  1  0.02272000  0.66024000  0.08069000  1.0
  H  H363  1  0.02178000  0.83876000  0.17893000  1.0
  H  H364  1  0.48660000  0.17024000  0.94262000  1.0
  H  H365  1  0.58366000  0.16566000  0.81254000  1.0
  H  H366  1  0.49152000  0.09392000  0.91811000  1.0
  H  H367  1  0.57810000  0.24176000  0.83747000  1.0
  H  H368  1  0.50920000  0.26320000  0.92263000  1.0
  H  H369  1  0.55016000  0.07462000  0.83044000  1.0
  H  H370  1  0.16306000  0.11110000  0.16194000  1.0
  H  H371  1  0.91678000  0.24746000  0.10312000  1.0
  H  H372  1  0.07754000  0.07200000  0.14641000  1.0
  H  H373  1  0.00332000  0.28662000  0.11773000  1.0
  H  H374  1  0.17622000  0.21012000  0.15770000  1.0
  H  H375  1  0.90584000  0.14866000  0.10501000  1.0
  H  H376  1  0.66236000  0.76468000  0.90580000  1.0
  H  H377  1  0.38506000  0.70028000  0.86218000  1.0
  H  H378  1  0.57874000  0.82166000  0.90084000  1.0
  H  H379  1  0.46998000  0.64486000  0.86625000  1.0
  H  H380  1  0.66196000  0.67172000  0.89429000  1.0
  H  H381  1  0.38446000  0.79298000  0.87307000  1.0
  H  H382  1  0.86292000  0.20570000  0.61425000  1.0
  H  H383  1  0.14872000  0.25988000  0.65033000  1.0
  H  H384  1  0.90818000  0.29284000  0.61642000  1.0
  H  H385  1  0.10274000  0.17282000  0.64853000  1.0
  H  H386  1  0.91532000  0.11944000  0.62460000  1.0
  H  H387  1  0.09756000  0.34628000  0.63886000  1.0
  H  H388  1  0.45598000  0.67328000  0.29270000  1.0
  H  H389  1  0.57842000  0.71246000  0.41452000  1.0
  H  H390  1  0.47694000  0.60662000  0.32969000  1.0
  H  H391  1  0.56020000  0.77908000  0.37674000  1.0
  H  H392  1  0.47366000  0.77038000  0.29332000  1.0
  H  H393  1  0.54778000  0.61788000  0.41641000  1.0
  H  H394  1  0.98094000  0.71068000  0.55640000  1.0
  H  H395  1  0.00602000  0.63712000  0.69372000  1.0
  H  H396  1  0.96274000  0.62342000  0.58249000  1.0
  H  H397  1  0.02702000  0.72364000  0.66732000  1.0
  H  H398  1  0.01774000  0.78828000  0.57583000  1.0
  H  H399  1  0.97684000  0.55726000  0.67402000  1.0
  H  H400  1  0.58352000  0.23840000  0.43593000  1.0
  H  H401  1  0.43826000  0.27942000  0.31391000  1.0
  H  H402  1  0.54074000  0.32098000  0.41393000  1.0
  H  H403  1  0.48220000  0.19758000  0.33611000  1.0
  H  H404  1  0.58086000  0.15244000  0.41733000  1.0
  H  H405  1  0.43560000  0.36384000  0.33291000  1.0
  H  H406  1  0.59958000  0.94578000  0.00022000  1.0
  H  H407  1  0.69606000  0.90806000  0.93390000  1.0
  H  H408  1  0.78460000  0.90824000  0.95896000  1.0
  H  H409  1  0.77146000  0.96310000  0.07200000  1.0
  H  H410  1  0.86156000  0.91762000  0.99077000  1.0
  H  H411  1  0.92174000  0.93268000  0.02767000  1.0
  H  H412  1  0.36372000  0.93460000  0.97930000  1.0
  H  H413  1  0.28814000  0.02972000  0.91148000  1.0
  H  H414  1  0.20646000  0.05190000  0.93751000  1.0
  H  H415  1  0.19450000  0.94866000  0.05315000  1.0
  H  H416  1  0.13284000  0.06030000  0.97050000  1.0
  H  H417  1  0.06960000  0.05160000  0.00836000  1.0
  H  H418  1  0.58360000  0.44758000  0.49818000  1.0
  H  H419  1  0.67394000  0.39344000  0.43362000  1.0
  H  H420  1  0.76152000  0.38264000  0.45966000  1.0
  H  H421  1  0.75708000  0.45082000  0.57044000  1.0
  H  H422  1  0.83950000  0.38604000  0.49160000  1.0
  H  H423  1  0.90214000  0.40070000  0.52781000  1.0
  H  H424  1  0.35198000  0.45470000  0.47551000  1.0
  H  H425  1  0.26700000  0.52618000  0.40485000  1.0
  H  H426  1  0.18118000  0.54158000  0.42971000  1.0
  H  H427  1  0.17970000  0.46110000  0.54819000  1.0
  H  H428  1  0.10520000  0.54686000  0.46233000  1.0
  H  H429  1  0.04258000  0.53780000  0.50050000  1.0
  H  H430  1  0.46886000  0.01022000  0.27695000  1.0
  H  H431  1  0.43174000  0.01190000  0.30708000  1.0
  O  O432  1  0.94312000  0.96350000  0.07055000  1.0
  O  O433  1  0.86588000  0.96080000  0.09741000  1.0
  O  O434  1  0.93054000  0.04738000  0.12560000  1.0
  O  O435  1  0.02112000  0.04228000  0.11049000  1.0
  O  O436  1  0.03606000  0.01328000  0.05357000  1.0
  O  O437  1  0.09738000  0.96236000  0.07758000  1.0
  O  O438  1  0.02318000  0.90090000  0.11015000  1.0
  O  O439  1  0.95200000  0.89830000  0.14048000  1.0
  O  O440  1  0.88416000  0.97806000  0.16939000  1.0
  O  O441  1  0.82010000  0.95484000  0.14260000  1.0
  O  O442  1  0.43004000  0.95548000  0.93752000  1.0
  O  O443  1  0.37048000  0.96992000  0.90205000  1.0
  O  O444  1  0.43758000  0.88286000  0.87259000  1.0
  O  O445  1  0.49476000  0.86768000  0.90836000  1.0
  O  O446  1  0.53850000  0.93946000  0.95773000  1.0
  O  O447  1  0.59106000  0.92736000  0.92433000  1.0
  O  O448  1  0.52098000  0.01550000  0.89832000  1.0
  O  O449  1  0.46444000  0.02504000  0.86208000  1.0
  O  O450  1  0.39550000  0.95640000  0.82970000  1.0
  O  O451  1  0.32908000  0.97980000  0.85530000  1.0
  O  O452  1  0.92654000  0.44772000  0.56704000  1.0
  O  O453  1  0.85352000  0.43682000  0.59641000  1.0
  O  O454  1  0.92558000  0.51636000  0.63493000  1.0
  O  O455  1  0.99690000  0.53412000  0.60508000  1.0
  O  O456  1  0.01430000  0.50632000  0.54766000  1.0
  O  O457  1  0.08056000  0.46274000  0.57169000  1.0
  O  O458  1  0.01714000  0.39610000  0.60525000  1.0
  O  O459  1  0.94300000  0.37428000  0.63354000  1.0
  O  O460  1  0.87326000  0.41544000  0.66933000  1.0
  O  O461  1  0.80746000  0.44522000  0.64125000  1.0
  O  O462  1  0.41654000  0.47174000  0.43435000  1.0
  O  O463  1  0.36154000  0.48446000  0.39755000  1.0
  O  O464  1  0.47174000  0.42934000  0.36132000  1.0
  O  O465  1  0.47082000  0.38832000  0.40249000  1.0
  O  O466  1  0.52302000  0.44922000  0.45518000  1.0
  O  O467  1  0.57362000  0.42980000  0.42232000  1.0
  O  O468  1  0.51422000  0.53370000  0.39813000  1.0
  O  O469  1  0.44414000  0.56046000  0.36874000  1.0
  O  O470  1  0.39406000  0.52132000  0.32801000  1.0
  O  O471  1  0.33968000  0.45836000  0.34911000  1.0
  O  O472  1  0.66316000  0.95966000  0.04634000  1.0
  O  O473  1  0.29776000  0.92434000  0.02666000  1.0
  O  O474  1  0.64862000  0.45698000  0.54432000  1.0
  O  O475  1  0.28624000  0.44532000  0.52271000  1.0
  Si  Si476  1  0.13526000  0.94668000  0.64806000  1.0
  Si  Si477  1  0.55092000  0.47296000  0.82888000  1.0
  Si  Si478  1  0.17696000  0.46744000  0.13680000  1.0
  Si  Si479  1  0.53576000  0.00954000  0.31345000  1.0
