# generated using pymatgen
data_MgH31C62S4NO8
_symmetry_space_group_name_H-M   'P 1'
_cell_length_a   22.95495000
_cell_length_b   31.94450000
_cell_length_c   50.24240000
_cell_angle_alpha   90.34700000
_cell_angle_beta   90.00800000
_cell_angle_gamma   89.48200000
_symmetry_Int_Tables_number   1
_chemical_formula_structural   MgH31C62S4NO8
_chemical_formula_sum   'Mg4 H124 C248 S16 N4 O32'
_cell_volume   36839.78674166
_cell_formula_units_Z   4
loop_
 _symmetry_equiv_pos_site_id
 _symmetry_equiv_pos_as_xyz
  1  'x, y, z'
loop_
 _atom_site_type_symbol
 _atom_site_label
 _atom_site_symmetry_multiplicity
 _atom_site_fract_x
 _atom_site_fract_y
 _atom_site_fract_z
 _atom_site_occupancy
  C  C0  1  0.11334000  0.01699000  0.95037000  1.0
  C  C1  1  0.99102000  0.88904000  0.00203000  1.0
  C  C2  1  0.09800000  0.89090000  0.94215000  1.0
  C  C3  1  0.96506000  0.01591000  0.99085000  1.0
  C  C4  1  0.14374000  0.88876000  0.50386000  1.0
  C  C5  1  0.05894000  0.03121000  0.45159000  1.0
  C  C6  1  0.14176000  0.01071000  0.51695000  1.0
  C  C7  1  0.99834000  0.91084000  0.45265000  1.0
  C  C8  1  0.61934000  0.51922000  0.44969000  1.0
  C  C9  1  0.48304000  0.42066000  0.50456000  1.0
  C  C10  1  0.65644000  0.40149000  0.44274000  1.0
  C  C11  1  0.59284000  0.49918000  0.53307000  1.0
  C  C12  1  0.48126000  0.44814000  0.95284000  1.0
  C  C13  1  0.58276000  0.56916000  0.01927000  1.0
  C  C14  1  0.51306000  0.56770000  0.94603000  1.0
  C  C15  1  0.61950000  0.45338000  0.01513000  1.0
  C  C16  1  0.21366000  0.78076000  0.88006000  1.0
  C  C17  1  0.23984000  0.72772000  0.84616000  1.0
  C  C18  1  0.29092000  0.71758000  0.86088000  1.0
  C  C19  1  0.30490000  0.74268000  0.88326000  1.0
  C  C20  1  0.26706000  0.77351000  0.89256000  1.0
  C  C21  1  0.20058000  0.75808000  0.85689000  1.0
  C  C22  1  0.40954000  0.63532000  0.86103000  1.0
  C  C23  1  0.37264000  0.66805000  0.86922000  1.0
  C  C24  1  0.32700000  0.68331000  0.85279000  1.0
  C  C25  1  0.31580000  0.66221000  0.82835000  1.0
  C  C26  1  0.35644000  0.63139000  0.81956000  1.0
  C  C27  1  0.40246000  0.61835000  0.83562000  1.0
  C  C28  1  0.19986000  0.66054000  0.77530000  1.0
  C  C29  1  0.24826000  0.64900000  0.79060000  1.0
  C  C30  1  0.26500000  0.67257000  0.81337000  1.0
  C  C31  1  0.22828000  0.70643000  0.82176000  1.0
  C  C32  1  0.18136000  0.71853000  0.80503000  1.0
  C  C33  1  0.16756000  0.69582000  0.78229000  1.0
  C  C34  1  0.35436000  0.32241000  0.56866000  1.0
  C  C35  1  0.30148000  0.26140000  0.58600000  1.0
  C  C36  1  0.28844000  0.28400000  0.60982000  1.0
  C  C37  1  0.30886000  0.32576000  0.61210000  1.0
  C  C38  1  0.34136000  0.34431000  0.59200000  1.0
  C  C39  1  0.33327667  0.28171000  0.56561000  1.0
  C  C40  1  0.21256000  0.26517000  0.67554000  1.0
  C  C41  1  0.24482000  0.28435000  0.65535000  1.0
  C  C42  1  0.25546000  0.26441000  0.63040000  1.0
  C  C43  1  0.23172000  0.22376000  0.62599000  1.0
  C  C44  1  0.20104000  0.20449000  0.64706000  1.0
  C  C45  1  0.19118000  0.22503000  0.67115000  1.0
  C  C46  1  0.22478000  0.14303000  0.57078000  1.0
  C  C47  1  0.21124000  0.16530000  0.59421000  1.0
  C  C48  1  0.24082000  0.20286000  0.60117000  1.0
  C  C49  1  0.28030000  0.21999000  0.58244000  1.0
  C  C50  1  0.29726000  0.19489000  0.56043000  1.0
  C  C51  1  0.27010000  0.15734000  0.55481000  1.0
  C  C52  1  0.86080000  0.80225000  0.07054000  1.0
  C  C53  1  0.78598000  0.79335000  0.10525000  1.0
  C  C54  1  0.76434000  0.75794000  0.09116000  1.0
  C  C55  1  0.79584000  0.74328000  0.06863000  1.0
  C  C56  1  0.84266000  0.76525000  0.05848000  1.0
  C  C57  1  0.83324000  0.81573000  0.09399000  1.0
  C  C58  1  0.63576000  0.68523000  0.09335000  1.0
  C  C59  1  0.68514000  0.70647000  0.08438000  1.0
  C  C60  1  0.71254000  0.73792000  0.09992000  1.0
  C  C61  1  0.68580000  0.75053000  0.12426000  1.0
  C  C62  1  0.63780000  0.72712000  0.13359000  1.0
  C  C63  1  0.61348000  0.69519000  0.11843000  1.0
  C  C64  1  0.69946000  0.83679000  0.17527000  1.0
  C  C65  1  0.67810000  0.80236000  0.16123000  1.0
  C  C66  1  0.70756000  0.78576000  0.13855000  1.0
  C  C67  1  0.75864000  0.80643000  0.12944000  1.0
  C  C68  1  0.78108000  0.83971000  0.14510000  1.0
  C  C69  1  0.75158000  0.85481000  0.16733000  1.0
  C  C70  1  0.78732000  0.30237000  0.37885000  1.0
  C  C71  1  0.85170000  0.24384000  0.36529000  1.0
  C  C72  1  0.82306000  0.24190000  0.34020000  1.0
  C  C73  1  0.78120000  0.27345000  0.33428000  1.0
  C  C74  1  0.76372000  0.30288000  0.35327000  1.0
  C  C75  1  0.83152000  0.27330000  0.38455000  1.0
  C  C76  1  0.81464000  0.16848000  0.28121000  1.0
  C  C77  1  0.80466000  0.20289000  0.29792000  1.0
  C  C78  1  0.83596000  0.20829000  0.32218000  1.0
  C  C79  1  0.87862000  0.17739000  0.32924000  1.0
  C  C80  1  0.89050000  0.14448000  0.31092000  1.0
  C  C81  1  0.85800000  0.13959000  0.28784000  1.0
  C  C82  1  0.97544000  0.15115000  0.38783000  1.0
  C  C83  1  0.94604000  0.14770000  0.36345000  1.0
  C  C84  1  0.90792000  0.17996000  0.35425000  1.0
  C  C85  1  0.89702000  0.21480000  0.37135000  1.0
  C  C86  1  0.93190000  0.21947000  0.39441000  1.0
  C  C87  1  0.96986000  0.18807000  0.40253000  1.0
  C  C88  1  0.83094000  0.14454000  0.02357000  1.0
  C  C89  1  0.81542000  0.18448000  0.06526000  1.0
  C  C90  1  0.79022000  0.21755000  0.05028000  1.0
  C  C91  1  0.78016000  0.21094000  0.02272000  1.0
  C  C92  1  0.80010000  0.17516000  0.00972000  1.0
  C  C93  1  0.83798000  0.14917000  0.05118000  1.0
  C  C94  1  0.74166000  0.32913000  0.06020000  1.0
  C  C95  1  0.75984000  0.29186000  0.04804000  1.0
  C  C96  1  0.77518000  0.25597000  0.06306000  1.0
  C  C97  1  0.77688000  0.25929000  0.09136000  1.0
  C  C98  1  0.75866000  0.29775000  0.10320000  1.0
  C  C99  1  0.74038000  0.33156000  0.08786000  1.0
  C  C100  1  0.81500000  0.19090000  0.15027000  1.0
  C  C101  1  0.79606000  0.22527000  0.13521000  1.0
  C  C102  1  0.79646000  0.22445000  0.10682000  1.0
  C  C103  1  0.81698000  0.18738000  0.09364000  1.0
  C  C104  1  0.83600000  0.15329000  0.10944000  1.0
  C  C105  1  0.83512000  0.15519000  0.13699000  1.0
  C  C106  1  0.82230000  0.83333000  0.40250000  1.0
  C  C107  1  0.74788000  0.78121000  0.39027000  1.0
  C  C108  1  0.74976000  0.79543000  0.36348000  1.0
  C  C109  1  0.78896000  0.82789000  0.35702000  1.0
  C  C110  1  0.82386000  0.84649000  0.37615000  1.0
  C  C111  1  0.78466000  0.80085000  0.40943000  1.0
  C  C112  1  0.67880000  0.77241000  0.29742000  1.0
  C  C113  1  0.70982000  0.79271000  0.31761000  1.0
  C  C114  1  0.71436000  0.77611000  0.34367000  1.0
  C  C115  1  0.68242000  0.73939000  0.34985000  1.0
  C  C116  1  0.64984000  0.72005000  0.32920000  1.0
  C  C117  1  0.64904000  0.73589000  0.30348000  1.0
  C  C118  1  0.65334000  0.67151000  0.40949000  1.0
  C  C119  1  0.65462000  0.68574000  0.38324000  1.0
  C  C120  1  0.68266000  0.72379000  0.37640000  1.0
  C  C121  1  0.71210000  0.74650000  0.39689000  1.0
  C  C122  1  0.70574000  0.73298000  0.42352000  1.0
  C  C123  1  0.67752000  0.69605000  0.42956000  1.0
  C  C124  1  0.35308000  0.33229000  0.90251000  1.0
  C  C125  1  0.30872000  0.26357000  0.89410000  1.0
  C  C126  1  0.30636000  0.27248000  0.86642000  1.0
  C  C127  1  0.33274000  0.30986000  0.85744000  1.0
  C  C128  1  0.35606000  0.33882000  0.87516000  1.0
  C  C129  1  0.32916000  0.29504000  0.91181000  1.0
  C  C130  1  0.24216000  0.22623000  0.80371000  1.0
  C  C131  1  0.27014000  0.25369000  0.82125000  1.0
  C  C132  1  0.27828000  0.24404000  0.84863000  1.0
  C  C133  1  0.25560000  0.20559000  0.85848000  1.0
  C  C134  1  0.22830000  0.17809000  0.84008000  1.0
  C  C135  1  0.22168000  0.18837000  0.81337000  1.0
  C  C136  1  0.24802000  0.14730000  0.92391000  1.0
  C  C137  1  0.23924000  0.15786000  0.89709000  1.0
  C  C138  1  0.26148000  0.19553000  0.88609000  1.0
  C  C139  1  0.29018000  0.22397000  0.90355000  1.0
  C  C140  1  0.30126000  0.21140000  0.93008000  1.0
  C  C141  1  0.28038000  0.17407000  0.93998000  1.0
  C  C142  1  0.28042000  0.78248000  0.55858000  1.0
  C  C143  1  0.35208000  0.72923000  0.57333000  1.0
  C  C144  1  0.32252000  0.72702000  0.59823000  1.0
  C  C145  1  0.27636000  0.75549000  0.60336000  1.0
  C  C146  1  0.25578000  0.78231000  0.58395000  1.0
  C  C147  1  0.32898000  0.75651000  0.55347000  1.0
  C  C148  1  0.32886000  0.66567000  0.66192000  1.0
  C  C149  1  0.30770000  0.69064000  0.64114000  1.0
  C  C150  1  0.34084000  0.69782000  0.61784000  1.0
  C  C151  1  0.39266000  0.67415000  0.61395000  1.0
  C  C152  1  0.41502000  0.65088000  0.63567000  1.0
  C  C153  1  0.38394000  0.64722000  0.65927000  1.0
  C  C154  1  0.49504000  0.64610000  0.55826000  1.0
  C  C155  1  0.46558000  0.64525000  0.58255000  1.0
  C  C156  1  0.42092000  0.67461000  0.58880000  1.0
  C  C157  1  0.40230000  0.70332000  0.56882000  1.0
  C  C158  1  0.43524000  0.70519000  0.54497000  1.0
  C  C159  1  0.48096000  0.67726000  0.53995000  1.0
  C  C160  1  0.11706000  0.86259000  0.92078000  1.0
  C  C161  1  0.09216000  0.85776000  0.89574000  1.0
  C  C162  1  0.12266000  0.82927000  0.87943000  1.0
  C  C163  1  0.17184000  0.81167000  0.89162000  1.0
  C  C164  1  0.15230000  0.04337000  0.53703000  1.0
  C  C165  1  0.11310000  0.05993000  0.55550000  1.0
  C  C166  1  0.13512000  0.09446000  0.56970000  1.0
  C  C167  1  0.19172000  0.10534000  0.56232000  1.0
  C  C168  1  0.96836000  0.86772000  0.02561000  1.0
  C  C169  1  0.97832000  0.87851000  0.05210000  1.0
  C  C170  1  0.94364000  0.85623000  0.07004000  1.0
  C  C171  1  0.90642000  0.82775000  0.05770000  1.0
  C  C172  1  0.04868000  0.05951000  0.42914000  1.0
  C  C173  1  0.05812000  0.05118000  0.40225000  1.0
  C  C174  1  0.03544000  0.08239000  0.38545000  1.0
  C  C175  1  0.00856000  0.11544000  0.39917000  1.0
  C  C176  1  0.91976000  0.04809000  0.99382000  1.0
  C  C177  1  0.87734000  0.05937000  0.97542000  1.0
  C  C178  1  0.84226000  0.09300000  0.98406000  1.0
  C  C179  1  0.85708000  0.10814000  0.00932000  1.0
  C  C180  1  0.94456000  0.88873000  0.44578000  1.0
  C  C181  1  0.90074000  0.87575000  0.46292000  1.0
  C  C182  1  0.85496000  0.85521000  0.44978000  1.0
  C  C183  1  0.86248000  0.85234000  0.42223000  1.0
  C  C184  1  0.15926000  0.04833000  0.94804000  1.0
  C  C185  1  0.20464000  0.05503000  0.96581000  1.0
  C  C186  1  0.23996000  0.08873000  0.95874000  1.0
  C  C187  1  0.22248000  0.10880000  0.93536000  1.0
  C  C188  1  0.18998000  0.85945000  0.51199000  1.0
  C  C189  1  0.24432000  0.85281000  0.50030000  1.0
  C  C190  1  0.28020000  0.82501000  0.51471000  1.0
  C  C191  1  0.25428000  0.81001000  0.53791000  1.0
  C  C192  1  0.70270000  0.37652000  0.42993000  1.0
  C  C193  1  0.75740000  0.36749000  0.44040000  1.0
  C  C194  1  0.79170000  0.34206000  0.42368000  1.0
  C  C195  1  0.76412000  0.33092000  0.39988000  1.0
  C  C196  1  0.58300000  0.59861000  0.04176000  1.0
  C  C197  1  0.53838000  0.60587000  0.05995000  1.0
  C  C198  1  0.55236000  0.63599000  0.07931000  1.0
  C  C199  1  0.60818000  0.65257000  0.07643000  1.0
  C  C200  1  0.44932000  0.38713000  0.51708000  1.0
  C  C201  1  0.45856000  0.34456000  0.51277000  1.0
  C  C202  1  0.42584000  0.31910000  0.52952000  1.0
  C  C203  1  0.39082000  0.34134000  0.54749000  1.0
  C  C204  1  0.50174000  0.58622000  0.91990000  1.0
  C  C205  1  0.52964000  0.57624000  0.89607000  1.0
  C  C206  1  0.50204000  0.59354000  0.87369000  1.0
  C  C207  1  0.45238000  0.61720000  0.87990000  1.0
  C  C208  1  0.58556000  0.54325000  0.54111000  1.0
  C  C209  1  0.61138000  0.57708000  0.52841000  1.0
  C  C210  1  0.58458000  0.61566000  0.53418000  1.0
  C  C211  1  0.53744000  0.61251000  0.55147000  1.0
  C  C212  1  0.43702000  0.41769000  0.94491000  1.0
  C  C213  1  0.39346000  0.40110000  0.96079000  1.0
  C  C214  1  0.36018000  0.37071000  0.94763000  1.0
  C  C215  1  0.37736000  0.36356000  0.92130000  1.0
  C  C216  1  0.61426000  0.55826000  0.43469000  1.0
  C  C217  1  0.57282000  0.56958000  0.41578000  1.0
  C  C218  1  0.58234000  0.60958000  0.40507000  1.0
  C  C219  1  0.63042000  0.62977000  0.41611000  1.0
  C  C220  1  0.66422000  0.42267000  0.02264000  1.0
  C  C221  1  0.70812000  0.40679000  0.00632000  1.0
  C  C222  1  0.74016000  0.37437000  0.01814000  1.0
  C  C223  1  0.72156000  0.36479000  0.04384000  1.0
  C  C224  1  0.21906000  0.68271000  0.71766000  1.0
  C  C225  1  0.29472000  0.61983000  0.69929000  1.0
  C  C226  1  0.22082000  0.64394000  0.73060000  1.0
  C  C227  1  0.25946000  0.61272000  0.72143000  1.0
  C  C228  1  0.29296000  0.65864000  0.68617000  1.0
  C  C229  1  0.25530000  0.69022000  0.69593000  1.0
  C  C230  1  0.16560000  0.24913000  0.73836000  1.0
  C  C231  1  0.27724000  0.25563000  0.76023000  1.0
  C  C232  1  0.21002000  0.26775000  0.72357000  1.0
  C  C233  1  0.26630000  0.27010000  0.73442000  1.0
  C  C234  1  0.23220000  0.23816000  0.77547000  1.0
  C  C235  1  0.17658000  0.23418000  0.76402000  1.0
  C  C236  1  0.62168000  0.81128000  0.23095000  1.0
  C  C237  1  0.72680000  0.80840000  0.25904000  1.0
  C  C238  1  0.67110000  0.83046000  0.22042000  1.0
  C  C239  1  0.72392000  0.82850000  0.23448000  1.0
  C  C240  1  0.67674000  0.79037000  0.27019000  1.0
  C  C241  1  0.62434000  0.79138000  0.25565000  1.0
  C  C242  1  0.75086000  0.19875000  0.21980000  1.0
  C  C243  1  0.85312000  0.17028000  0.19531000  1.0
  C  C244  1  0.79174000  0.17598000  0.23469000  1.0
  C  C245  1  0.84372000  0.16263000  0.22232000  1.0
  C  C246  1  0.81024000  0.19052000  0.17988000  1.0
  C  C247  1  0.75986000  0.20599000  0.19266000  1.0
  H  H248  1  0.15828000  0.76325000  0.84825000  1.0
  H  H249  1  0.34566000  0.73996000  0.89381000  1.0
  H  H250  1  0.28002000  0.79147000  0.90989000  1.0
  H  H251  1  0.37904000  0.68004000  0.88908000  1.0
  H  H252  1  0.35412000  0.61664000  0.80024000  1.0
  H  H253  1  0.43082000  0.59347000  0.82844000  1.0
  H  H254  1  0.27094000  0.62088000  0.78443000  1.0
  H  H255  1  0.15480000  0.74598000  0.80862000  1.0
  H  H256  1  0.13084000  0.70548000  0.77019000  1.0
  H  H257  1  0.34000000  0.26725000  0.54644000  1.0
  H  H258  1  0.30022000  0.34552000  0.62909000  1.0
  H  H259  1  0.35670000  0.37598000  0.59494000  1.0
  H  H260  1  0.26092000  0.31508000  0.65994000  1.0
  H  H261  1  0.18480000  0.17298000  0.64577000  1.0
  H  H262  1  0.16574000  0.20962000  0.68628000  1.0
  H  H263  1  0.17656000  0.15333000  0.60636000  1.0
  H  H264  1  0.33206000  0.20316000  0.54711000  1.0
  H  H265  1  0.28374000  0.14040000  0.53712000  1.0
  H  H266  1  0.84748000  0.84514000  0.10215000  1.0
  H  H267  1  0.78596000  0.71443000  0.05843000  1.0
  H  H268  1  0.86446000  0.75322000  0.04086000  1.0
  H  H269  1  0.69992000  0.69922000  0.06454000  1.0
  H  H270  1  0.61830000  0.73210000  0.15287000  1.0
  H  H271  1  0.57690000  0.67840000  0.12658000  1.0
  H  H272  1  0.63676000  0.79070000  0.16793000  1.0
  H  H273  1  0.82176000  0.85485000  0.14090000  1.0
  H  H274  1  0.76932000  0.88105000  0.17831000  1.0
  H  H275  1  0.84678000  0.27216000  0.40481000  1.0
  H  H276  1  0.76060000  0.27639000  0.31512000  1.0
  H  H277  1  0.73070000  0.32574000  0.34790000  1.0
  H  H278  1  0.76928000  0.22320000  0.29209000  1.0
  H  H279  1  0.92432000  0.12139000  0.31389000  1.0
  H  H280  1  0.86588000  0.11238000  0.27534000  1.0
  H  H281  1  0.95086000  0.11838000  0.35297000  1.0
  H  H282  1  0.93100000  0.24739000  0.40661000  1.0
  H  H283  1  0.99406000  0.19249000  0.42084000  1.0
  H  H284  1  0.86200000  0.12483000  0.06112000  1.0
  H  H285  1  0.75570000  0.23252000  0.01055000  1.0
  H  H286  1  0.79266000  0.17236000  0.98851000  1.0
  H  H287  1  0.76198000  0.29178000  0.02663000  1.0
  H  H288  1  0.75808000  0.30323000  0.12434000  1.0
  H  H289  1  0.72646000  0.36015000  0.09780000  1.0
  H  H290  1  0.78084000  0.25202000  0.14639000  1.0
  H  H291  1  0.84992000  0.12360000  0.10133000  1.0
  H  H292  1  0.84834000  0.12757000  0.14795000  1.0
  H  H293  1  0.78760000  0.79007000  0.42964000  1.0
  H  H294  1  0.79578000  0.83884000  0.33705000  1.0
  H  H295  1  0.85284000  0.87119000  0.36998000  1.0
  H  H296  1  0.72804000  0.82261000  0.31260000  1.0
  H  H297  1  0.62346000  0.69280000  0.33215000  1.0
  H  H298  1  0.62444000  0.71953000  0.28830000  1.0
  H  H299  1  0.63606000  0.66523000  0.36849000  1.0
  H  H300  1  0.72198000  0.75025000  0.44039000  1.0
  H  H301  1  0.67530000  0.68639000  0.45018000  1.0
  H  H302  1  0.32670000  0.29148000  0.93308000  1.0
  H  H303  1  0.33732000  0.31762000  0.83673000  1.0
  H  H304  1  0.37540000  0.36697000  0.86729000  1.0
  H  H305  1  0.28264000  0.28334000  0.81303000  1.0
  H  H306  1  0.21140000  0.14802000  0.84546000  1.0
  H  H307  1  0.20030000  0.16642000  0.80015000  1.0
  H  H308  1  0.21484000  0.13591000  0.88534000  1.0
  H  H309  1  0.32742000  0.22930000  0.94376000  1.0
  H  H310  1  0.28886000  0.16687000  0.96065000  1.0
  H  H311  1  0.34654000  0.75720000  0.53362000  1.0
  H  H312  1  0.25592000  0.75872000  0.62261000  1.0
  H  H313  1  0.22010000  0.80318000  0.58917000  1.0
  H  H314  1  0.26374000  0.70253000  0.64295000  1.0
  H  H315  1  0.45742000  0.63603000  0.63529000  1.0
  H  H316  1  0.40308000  0.62940000  0.67537000  1.0
  H  H317  1  0.47686000  0.62015000  0.59593000  1.0
  H  H318  1  0.42682000  0.72785000  0.52962000  1.0
  H  H319  1  0.50344000  0.67895000  0.52104000  1.0
  H  H320  1  0.05352000  0.87456000  0.88927000  1.0
  H  H321  1  0.10920000  0.82253000  0.85923000  1.0
  H  H322  1  0.06928000  0.04836000  0.55816000  1.0
  H  H323  1  0.10918000  0.11177000  0.58407000  1.0
  H  H324  1  0.00830000  0.90267000  0.05831000  1.0
  H  H325  1  0.94538000  0.86137000  0.09135000  1.0
  H  H326  1  0.07882000  0.02281000  0.39486000  1.0
  H  H327  1  0.03798000  0.08035000  0.36396000  1.0
  H  H328  1  0.87208000  0.04418000  0.95625000  1.0
  H  H329  1  0.80724000  0.10562000  0.97203000  1.0
  H  H330  1  0.90166000  0.88083000  0.48425000  1.0
  H  H331  1  0.81724000  0.84345000  0.46018000  1.0
  H  H332  1  0.21188000  0.03647000  0.98349000  1.0
  H  H333  1  0.27708000  0.09795000  0.97061000  1.0
  H  H334  1  0.25826000  0.86811000  0.48224000  1.0
  H  H335  1  0.32422000  0.81726000  0.50860000  1.0
  H  H336  1  0.77224000  0.37872000  0.45960000  1.0
  H  H337  1  0.83542000  0.33235000  0.42903000  1.0
  H  H338  1  0.49686000  0.59005000  0.05931000  1.0
  H  H339  1  0.52188000  0.64551000  0.09468000  1.0
  H  H340  1  0.48916000  0.33205000  0.49829000  1.0
  H  H341  1  0.42952000  0.28529000  0.52896000  1.0
  H  H342  1  0.56742000  0.55580000  0.89469000  1.0
  H  H343  1  0.51746000  0.58801000  0.85361000  1.0
  H  H344  1  0.64636000  0.57384000  0.51404000  1.0
  H  H345  1  0.59816000  0.64470000  0.52516000  1.0
  H  H346  1  0.38628000  0.41014000  0.98135000  1.0
  H  H347  1  0.32462000  0.35462000  0.95721000  1.0
  H  H348  1  0.53738000  0.54958000  0.40963000  1.0
  H  H349  1  0.55460000  0.62335000  0.38998000  1.0
  H  H350  1  0.71594000  0.41746000  0.98623000  1.0
  H  H351  1  0.77528000  0.35810000  0.00794000  1.0
  H  H352  1  0.18280000  0.60446000  0.75766000  1.0
  H  H353  1  0.26146000  0.58252000  0.73109000  1.0
  H  H354  1  0.25358000  0.72086000  0.68681000  1.0
  H  H355  1  0.18960000  0.70720000  0.72444000  1.0
  H  H356  1  0.32236000  0.59449000  0.69217000  1.0
  H  H357  1  0.21214000  0.31910000  0.69920000  1.0
  H  H358  1  0.30102000  0.28469000  0.72331000  1.0
  H  H359  1  0.14092000  0.22117000  0.77532000  1.0
  H  H360  1  0.12188000  0.24756000  0.73034000  1.0
  H  H361  1  0.32064000  0.25877000  0.76848000  1.0
  H  H362  1  0.67856000  0.88570000  0.20075000  1.0
  H  H363  1  0.76250000  0.84341000  0.22670000  1.0
  H  H364  1  0.58488000  0.77817000  0.26376000  1.0
  H  H365  1  0.58062000  0.81293000  0.22038000  1.0
  H  H366  1  0.76808000  0.80755000  0.26952000  1.0
  H  H367  1  0.76830000  0.12729000  0.25801000  1.0
  H  H368  1  0.87574000  0.14431000  0.23305000  1.0
  H  H369  1  0.72554000  0.22125000  0.18140000  1.0
  H  H370  1  0.71008000  0.20848000  0.22885000  1.0
  H  H371  1  0.89288000  0.15851000  0.18620000  1.0
  Mg  Mg372  1  0.03992000  0.95432000  0.97089000  1.0
  Mg  Mg373  1  0.08418000  0.95696000  0.48068000  1.0
  Mg  Mg374  1  0.59666000  0.45176000  0.48204000  1.0
  Mg  Mg375  1  0.54784000  0.50570000  0.98300000  1.0
  N  N376  1  0.18232000  0.63621000  0.75261000  1.0
  N  N377  1  0.19584000  0.28860000  0.69907000  1.0
  N  N378  1  0.66584000  0.85494000  0.19666000  1.0
  N  N379  1  0.77420000  0.15960000  0.26005000  1.0
  O  O380  1  0.05202000  0.91531000  0.93962000  1.0
  O  O381  1  0.12898000  0.89321000  0.96408000  1.0
  O  O382  1  0.10942000  0.99267000  0.97132000  1.0
  O  O383  1  0.07378000  0.01413000  0.93158000  1.0
  O  O384  1  0.97010000  0.99289000  0.96920000  1.0
  O  O385  1  0.00326000  0.01090000  0.01006000  1.0
  O  O386  1  0.02816000  0.91995000  0.00420000  1.0
  O  O387  1  0.96852000  0.88053000  0.97861000  1.0
  O  O388  1  0.09020000  0.99388000  0.51361000  1.0
  O  O389  1  0.18350000  0.00098000  0.50008000  1.0
  O  O390  1  0.14976000  0.91422000  0.48362000  1.0
  O  O391  1  0.09666000  0.89213000  0.51860000  1.0
  O  O392  1  0.00800000  0.92576000  0.47669000  1.0
  O  O393  1  0.03754000  0.91676000  0.43404000  1.0
  O  O394  1  0.08806000  0.99579000  0.44885000  1.0
  O  O395  1  0.03364000  0.03965000  0.47445000  1.0
  O  O396  1  0.66352000  0.41748000  0.46670000  1.0
  O  O397  1  0.60702000  0.40783000  0.43019000  1.0
  O  O398  1  0.57512000  0.49407000  0.45371000  1.0
  O  O399  1  0.66862000  0.51149000  0.46208000  1.0
  O  O400  1  0.62314000  0.49119000  0.51146000  1.0
  O  O401  1  0.55586000  0.47141000  0.54181000  1.0
  O  O402  1  0.53386000  0.41121000  0.49390000  1.0
  O  O403  1  0.46612000  0.45990000  0.50673000  1.0
  O  O404  1  0.55444000  0.53956000  0.94931000  1.0
  O  O405  1  0.47560000  0.57433000  0.96538000  1.0
  O  O406  1  0.48058000  0.46643000  0.97638000  1.0
  O  O407  1  0.52360000  0.45660000  0.93621000  1.0
  O  O408  1  0.61792000  0.46936000  0.99109000  1.0
  O  O409  1  0.57758000  0.46267000  0.03200000  1.0
  O  O410  1  0.53748000  0.54560000  0.01411000  1.0
  O  O411  1  0.62922000  0.56566000  0.00414000  1.0
  S  S412  1  0.17644000  0.83183000  0.92257000  1.0
  S  S413  1  0.21352000  0.07152000  0.53840000  1.0
  S  S414  1  0.91688000  0.83066000  0.02460000  1.0
  S  S415  1  0.01276000  0.10532000  0.43193000  1.0
  S  S416  1  0.91368000  0.07953000  0.02056000  1.0
  S  S417  1  0.92622000  0.87499000  0.41461000  1.0
  S  S418  1  0.16314000  0.08407000  0.92365000  1.0
  S  S419  1  0.18694000  0.83114000  0.53989000  1.0
  S  S420  1  0.69718000  0.35309000  0.39996000  1.0
  S  S421  1  0.63936000  0.62936000  0.04973000  1.0
  S  S422  1  0.40102000  0.39303000  0.54218000  1.0
  S  S423  1  0.44334000  0.61627000  0.91313000  1.0
  S  S424  1  0.52948000  0.56167000  0.55942000  1.0
  S  S425  1  0.43390000  0.39497000  0.91468000  1.0
  S  S426  1  0.66132000  0.59773000  0.43844000  1.0
  S  S427  1  0.66542000  0.39675000  0.05170000  1.0
