# generated using pymatgen
data_Co2H54C88O9
_symmetry_space_group_name_H-M   'P 1'
_cell_length_a   32.78410000
_cell_length_b   35.94290000
_cell_length_c   40.41240000
_cell_angle_alpha   89.87200000
_cell_angle_beta   90.13500000
_cell_angle_gamma   89.99600000
_symmetry_Int_Tables_number   1
_chemical_formula_structural   Co2H54C88O9
_chemical_formula_sum   'Co8 H216 C352 O36'
_cell_volume   47619.92782480
_cell_formula_units_Z   4
loop_
 _symmetry_equiv_pos_site_id
 _symmetry_equiv_pos_as_xyz
  1  'x, y, z'
loop_
 _atom_site_type_symbol
 _atom_site_label
 _atom_site_symmetry_multiplicity
 _atom_site_fract_x
 _atom_site_fract_y
 _atom_site_fract_z
 _atom_site_occupancy
  Co  Co0  1  0.86298000  0.94352000  0.96996000  1.0
  Co  Co1  1  0.91281000  0.91974000  0.03534000  1.0
  Co  Co2  1  0.94937000  0.95686000  0.51612000  1.0
  Co  Co3  1  0.90659000  0.93011000  0.58334000  1.0
  Co  Co4  1  0.47887000  0.41792000  0.69245000  1.0
  Co  Co5  1  0.43024000  0.44331000  0.62740000  1.0
  Co  Co6  1  0.50212000  0.46397000  0.99822000  1.0
  Co  Co7  1  0.44798000  0.44076000  0.06128000  1.0
  H  H8  1  0.67025000  0.75478000  0.23840000  1.0
  H  H9  1  0.71007000  0.72159000  0.24411000  1.0
  H  H10  1  0.64416000  0.71229000  0.19033000  1.0
  H  H11  1  0.71106000  0.67330000  0.19025000  1.0
  H  H12  1  0.69345000  0.65143000  0.22706000  1.0
  H  H13  1  0.54895000  0.17868000  0.45890000  1.0
  H  H14  1  0.53982000  0.15001000  0.49320000  1.0
  H  H15  1  0.62641000  0.17351000  0.49667000  1.0
  H  H16  1  0.59210000  0.11605000  0.52073000  1.0
  H  H17  1  0.59071000  0.09595000  0.48084000  1.0
  H  H18  1  0.17129000  0.73505000  0.88623000  1.0
  H  H19  1  0.14309000  0.69318000  0.88945000  1.0
  H  H20  1  0.21717000  0.70729000  0.93522000  1.0
  H  H21  1  0.16968000  0.65666000  0.95069000  1.0
  H  H22  1  0.17394000  0.63565000  0.91133000  1.0
  H  H23  1  0.28360000  0.12603000  0.72260000  1.0
  H  H24  1  0.28391000  0.12567000  0.67887000  1.0
  H  H25  1  0.20957000  0.14923000  0.67967000  1.0
  H  H26  1  0.23579000  0.08132000  0.67141000  1.0
  H  H27  1  0.22087000  0.07200000  0.71248000  1.0
  H  H28  1  0.11029000  0.29410000  0.96801000  1.0
  H  H29  1  0.11198000  0.28201000  0.01040000  1.0
  H  H30  1  0.13688000  0.21760000  0.99602000  1.0
  H  H31  1  0.06368000  0.23388000  0.00674000  1.0
  H  H32  1  0.05515000  0.24145000  0.96400000  1.0
  H  H33  1  0.12819000  0.61614000  0.76908000  1.0
  H  H34  1  0.10193000  0.59504000  0.73537000  1.0
  H  H35  1  0.12027000  0.64977000  0.69883000  1.0
  H  H36  1  0.05382000  0.64407000  0.72719000  1.0
  H  H37  1  0.07210000  0.66773000  0.76245000  1.0
  H  H38  1  0.68220000  0.10281000  0.21869000  1.0
  H  H39  1  0.63798000  0.08763000  0.19735000  1.0
  H  H40  1  0.68054000  0.16125000  0.17829000  1.0
  H  H41  1  0.62966000  0.13743000  0.13872000  1.0
  H  H42  1  0.59246000  0.13175000  0.17017000  1.0
  H  H43  1  0.64092000  0.75300000  0.42108000  1.0
  H  H44  1  0.59933000  0.77726000  0.43907000  1.0
  H  H45  1  0.63247000  0.70272000  0.46660000  1.0
  H  H46  1  0.59375000  0.73906000  0.50731000  1.0
  H  H47  1  0.55270000  0.74629000  0.47945000  1.0
  H  H48  1  0.69481000  0.85660000  0.08839000  1.0
  H  H49  1  0.65751000  0.82128000  0.13035000  1.0
  H  H50  1  0.87204000  0.78185000  0.14268000  1.0
  H  H51  1  0.83456000  0.74566000  0.18404000  1.0
  H  H52  1  0.87273000  0.82850000  0.09788000  1.0
  H  H53  1  0.75930000  0.87521000  0.06297000  1.0
  H  H54  1  0.65744000  0.77864000  0.17801000  1.0
  H  H55  1  0.76987000  0.72932000  0.21153000  1.0
  H  H56  1  0.77110000  0.06380000  0.60216000  1.0
  H  H57  1  0.70730000  0.09716000  0.59156000  1.0
  H  H58  1  0.78471000  0.02139000  0.43966000  1.0
  H  H59  1  0.71982000  0.05311000  0.42936000  1.0
  H  H60  1  0.83707000  0.99902000  0.47850000  1.0
  H  H61  1  0.82742000  0.02462000  0.58232000  1.0
  H  H62  1  0.65222000  0.11541000  0.55341000  1.0
  H  H63  1  0.65894000  0.08521000  0.45054000  1.0
  H  H64  1  0.97429000  0.75521000  0.97825000  1.0
  H  H65  1  0.01839000  0.71252000  0.94772000  1.0
  H  H66  1  0.13740000  0.86313000  0.01396000  1.0
  H  H67  1  0.18127000  0.82115000  0.98239000  1.0
  H  H68  1  0.06886000  0.88247000  0.03151000  1.0
  H  H69  1  0.96481000  0.81421000  0.00772000  1.0
  H  H70  1  0.08512000  0.69823000  0.92330000  1.0
  H  H71  1  0.18844000  0.76834000  0.94416000  1.0
  H  H72  1  0.07742000  0.08319000  0.55594000  1.0
  H  H73  1  0.13783000  0.10890000  0.58319000  1.0
  H  H74  1  0.02506000  0.99585000  0.69794000  1.0
  H  H75  1  0.08535000  0.02178000  0.72528000  1.0
  H  H76  1  0.98560000  0.98486000  0.64726000  1.0
  H  H77  1  0.01899000  0.04084000  0.55669000  1.0
  H  H78  1  0.18421000  0.11045000  0.63108000  1.0
  H  H79  1  0.15070000  0.05559000  0.72178000  1.0
  H  H80  1  0.96296000  0.07974000  0.90529000  1.0
  H  H81  1  0.99713000  0.14020000  0.90275000  1.0
  H  H82  1  0.04707000  0.04792000  0.05559000  1.0
  H  H83  1  0.08068000  0.10867000  0.05331000  1.0
  H  H84  1  0.99782000  0.00343000  0.03255000  1.0
  H  H85  1  0.94378000  0.02408000  0.93683000  1.0
  H  H86  1  0.03659000  0.18955000  0.93026000  1.0
  H  H87  1  0.08923000  0.16980000  0.02633000  1.0
  H  H88  1  0.99919000  0.76374000  0.59576000  1.0
  H  H89  1  0.03285000  0.70968000  0.62065000  1.0
  H  H90  1  0.00430000  0.85176000  0.74337000  1.0
  H  H91  1  0.03856000  0.79796000  0.76813000  1.0
  H  H92  1  0.97118000  0.88155000  0.69569000  1.0
  H  H93  1  0.96835000  0.82571000  0.60138000  1.0
  H  H94  1  0.05937000  0.67718000  0.66994000  1.0
  H  H95  1  0.06374000  0.73367000  0.76367000  1.0
  H  H96  1  0.69621000  0.00313000  0.04645000  1.0
  H  H97  1  0.65172000  0.03452000  0.08614000  1.0
  H  H98  1  0.86153000  0.05786000  0.13408000  1.0
  H  H99  1  0.81716000  0.09084000  0.17281000  1.0
  H  H100  1  0.86988000  0.01689000  0.08596000  1.0
  H  H101  1  0.76473000  0.98337000  0.02925000  1.0
  H  H102  1  0.64294000  0.06936000  0.13809000  1.0
  H  H103  1  0.74832000  0.10702000  0.19215000  1.0
  H  H104  1  0.82565000  0.78498000  0.50509000  1.0
  H  H105  1  0.77554000  0.75013000  0.47262000  1.0
  H  H106  1  0.67503000  0.89384000  0.56527000  1.0
  H  H107  1  0.62502000  0.85951000  0.53223000  1.0
  H  H108  1  0.74628000  0.90593000  0.58103000  1.0
  H  H109  1  0.84230000  0.83686000  0.54209000  1.0
  H  H110  1  0.70498000  0.74168000  0.45293000  1.0
  H  H111  1  0.60928000  0.81178000  0.49034000  1.0
  H  H112  1  0.31228000  0.30025000  0.60584000  1.0
  H  H113  1  0.27926000  0.23967000  0.61258000  1.0
  H  H114  1  0.36365000  0.29953000  0.76795000  1.0
  H  H115  1  0.33023000  0.23912000  0.77480000  1.0
  H  H116  1  0.38801000  0.34961000  0.73171000  1.0
  H  H117  1  0.35497000  0.35015000  0.62829000  1.0
  H  H118  1  0.26510000  0.18447000  0.64683000  1.0
  H  H119  1  0.29689000  0.18421000  0.75020000  1.0
  H  H120  1  0.35221000  0.52383000  0.90382000  1.0
  H  H121  1  0.29502000  0.56141000  0.88376000  1.0
  H  H122  1  0.32423000  0.59163000  0.05803000  1.0
  H  H123  1  0.26875000  0.63111000  0.03747000  1.0
  H  H124  1  0.37723000  0.54406000  0.04804000  1.0
  H  H125  1  0.39622000  0.50281000  0.94927000  1.0
  H  H126  1  0.23906000  0.60481000  0.89468000  1.0
  H  H127  1  0.22425000  0.65210000  0.99167000  1.0
  H  H128  1  0.53647000  0.25377000  0.64176000  1.0
  H  H129  1  0.55235000  0.20038000  0.60659000  1.0
  H  H130  1  0.52831000  0.36467000  0.50655000  1.0
  H  H131  1  0.54514000  0.31147000  0.47144000  1.0
  H  H132  1  0.51059000  0.38982000  0.56108000  1.0
  H  H133  1  0.51661000  0.31915000  0.64736000  1.0
  H  H134  1  0.56046000  0.17331000  0.55099000  1.0
  H  H135  1  0.55680000  0.24420000  0.46509000  1.0
  H  H136  1  0.60771000  0.60652000  0.04813000  1.0
  H  H137  1  0.64971000  0.64744000  0.08249000  1.0
  H  H138  1  0.54121000  0.51769000  0.18540000  1.0
  H  H139  1  0.58368000  0.55827000  0.21974000  1.0
  H  H140  1  0.51728000  0.49781000  0.13068000  1.0
  H  H141  1  0.55997000  0.55432000  0.04303000  1.0
  H  H142  1  0.67466000  0.66666667  0.13737000  1.0
  H  H143  1  0.63333000  0.60950000  0.22472000  1.0
  H  H144  1  0.57739000  0.56693000  0.59112000  1.0
  H  H145  1  0.61117000  0.62110000  0.56662000  1.0
  H  H146  1  0.41061000  0.59987000  0.49680000  1.0
  H  H147  1  0.44391000  0.65466000  0.47305000  1.0
  H  H148  1  0.41140000  0.54688000  0.53517000  1.0
  H  H149  1  0.51730000  0.52632000  0.59598000  1.0
  H  H150  1  0.60950000  0.67555000  0.52931000  1.0
  H  H151  1  0.50220000  0.69755000  0.47091000  1.0
  H  H152  1  0.46418000  0.28706000  0.15349000  1.0
  H  H153  1  0.49029000  0.22743000  0.17387000  1.0
  H  H154  1  0.64834000  0.32527000  0.08661000  1.0
  H  H155  1  0.67415000  0.26528000  0.10628000  1.0
  H  H156  1  0.59184000  0.36912000  0.07950000  1.0
  H  H157  1  0.47399000  0.34464000  0.12151000  1.0
  H  H158  1  0.54537000  0.18095000  0.17679000  1.0
  H  H159  1  0.66201000  0.20458000  0.13282000  1.0
  H  H160  1  0.24009000  0.50843000  0.62468000  1.0
  H  H161  1  0.17628000  0.53544000  0.64481000  1.0
  H  H162  1  0.34157000  0.58606000  0.75300000  1.0
  H  H163  1  0.27740000  0.61112000  0.77419000  1.0
  H  H164  1  0.37887000  0.54905000  0.71186000  1.0
  H  H165  1  0.31381000  0.49809000  0.63102000  1.0
  H  H166  1  0.13894000  0.57270000  0.68599000  1.0
  H  H167  1  0.20276000  0.61852000  0.76941000  1.0
  H  H168  1  0.30208000  0.31581000  0.08187000  1.0
  H  H169  1  0.23691000  0.28377000  0.07404000  1.0
  H  H170  1  0.29827000  0.37121000  0.92192000  1.0
  H  H171  1  0.23286000  0.33956000  0.91419000  1.0
  H  H172  1  0.35359000  0.39191000  0.95848000  1.0
  H  H173  1  0.35590000  0.35687000  0.06062000  1.0
  H  H174  1  0.17693000  0.27005000  0.03931000  1.0
  H  H175  1  0.17405000  0.30607000  0.93772000  1.0
  H  H176  1  0.57711000  0.69396000  0.20292000  1.0
  H  H177  1  0.52338000  0.68276000  0.24341000  1.0
  H  H178  1  0.61349000  0.68012000  0.32146000  1.0
  H  H179  1  0.66723000  0.68950000  0.28095000  1.0
  H  H180  1  0.52261000  0.70535000  0.31948000  1.0
  H  H181  1  0.50163000  0.66733000  0.29737000  1.0
  H  H182  1  0.63513000  0.65946000  0.42303000  1.0
  H  H183  1  0.60697000  0.63074000  0.37312000  1.0
  H  H184  1  0.50561000  0.70727000  0.37565000  1.0
  H  H185  1  0.53483000  0.73736000  0.42418000  1.0
  H  H186  1  0.55633000  0.62579000  0.33076000  1.0
  H  H187  1  0.50726000  0.63692000  0.34650000  1.0
  H  H188  1  0.66789000  0.19708000  0.45411000  1.0
  H  H189  1  0.68811000  0.20119000  0.39580000  1.0
  H  H190  1  0.59498000  0.12160000  0.37000000  1.0
  H  H191  1  0.57427000  0.11776000  0.42790000  1.0
  H  H192  1  0.68721000  0.17289000  0.34016000  1.0
  H  H193  1  0.65219000  0.13609000  0.33137000  1.0
  H  H194  1  0.69527000  0.19943000  0.22356000  1.0
  H  H195  1  0.68463000  0.21832000  0.28108000  1.0
  H  H196  1  0.57700000  0.14960000  0.28582000  1.0
  H  H197  1  0.58738000  0.13064000  0.22850000  1.0
  H  H198  1  0.63681000  0.22097000  0.33039000  1.0
  H  H199  1  0.59496000  0.18903000  0.33249000  1.0
  H  H200  1  0.19726000  0.64660000  0.85913000  1.0
  H  H201  1  0.23470000  0.65382000  0.80771000  1.0
  H  H202  1  0.30275000  0.74467000  0.84960000  1.0
  H  H203  1  0.26775000  0.73572000  0.90242000  1.0
  H  H204  1  0.31878000  0.72135000  0.79345000  1.0
  H  H205  1  0.29117000  0.68360000  0.77569000  1.0
  H  H206  1  0.18791000  0.67249000  0.69200000  1.0
  H  H207  1  0.24787000  0.70623000  0.71188000  1.0
  H  H208  1  0.18666000  0.72853000  0.80403000  1.0
  H  H209  1  0.12816000  0.69235000  0.78555000  1.0
  H  H210  1  0.27784000  0.74988000  0.75189000  1.0
  H  H211  1  0.25255000  0.76110000  0.78950000  1.0
  H  H212  1  0.23670000  0.10160000  0.76205000  1.0
  H  H213  1  0.20601000  0.11918000  0.81465000  1.0
  H  H214  1  0.13538000  0.20398000  0.76525000  1.0
  H  H215  1  0.16576000  0.18623000  0.71215000  1.0
  H  H216  1  0.11965000  0.18656000  0.82300000  1.0
  H  H217  1  0.14599000  0.14863000  0.84239000  1.0
  H  H218  1  0.09341000  0.26398000  0.91766000  1.0
  H  H219  1  0.11866000  0.25030000  0.86216000  1.0
  H  H220  1  0.20322000  0.17056000  0.90309000  1.0
  H  H221  1  0.17844000  0.18445000  0.95886000  1.0
  H  H222  1  0.18030000  0.22765000  0.82958000  1.0
  H  H223  1  0.20999000  0.18988000  0.84565000  1.0
  C  C224  1  0.93887000  0.97849000  0.99047000  1.0
  C  C225  1  0.98611000  0.88059000  0.03394000  1.0
  C  C226  1  0.84640000  0.97405000  0.03444000  1.0
  C  C227  1  0.84105000  0.87910000  0.05442000  1.0
  C  C228  1  0.96907000  0.98688000  0.58112000  1.0
  C  C229  1  0.94309000  0.88844000  0.63276000  1.0
  C  C230  1  0.87240000  0.98559000  0.53806000  1.0
  C  C231  1  0.82881000  0.89827000  0.57930000  1.0
  C  C232  1  0.49299000  0.38781000  0.62678000  1.0
  C  C233  1  0.44118000  0.50042000  0.58237000  1.0
  C  C234  1  0.40318000  0.38521000  0.67342000  1.0
  C  C235  1  0.38862000  0.50370000  0.65894000  1.0
  C  C236  1  0.51185000  0.49693000  0.06342000  1.0
  C  C237  1  0.51424000  0.39498000  0.08308000  1.0
  C  C238  1  0.42369000  0.49646000  0.01182000  1.0
  C  C239  1  0.39481000  0.40152000  0.01630000  1.0
  C  C240  1  0.68829000  0.73295000  0.22551000  1.0
  C  C241  1  0.65931000  0.70177000  0.21323000  1.0
  C  C242  1  0.68297000  0.66602000  0.20424000  1.0
  C  C243  1  0.56141000  0.17143000  0.48375000  1.0
  C  C244  1  0.60569000  0.15579000  0.48148000  1.0
  C  C245  1  0.60792000  0.11608000  0.49638000  1.0
  C  C246  1  0.16306000  0.71234000  0.90381000  1.0
  C  C247  1  0.20196000  0.69130000  0.91510000  1.0
  C  C248  1  0.19105000  0.65265000  0.92964000  1.0
  C  C249  1  0.26925000  0.13921000  0.70053000  1.0
  C  C250  1  0.22273000  0.13182000  0.69988000  1.0
  C  C251  1  0.21435000  0.09056000  0.69107000  1.0
  C  C252  1  0.12638000  0.27587000  0.98610000  1.0
  C  C253  1  0.11955000  0.23439000  0.97753000  1.0
  C  C254  1  0.07385000  0.22492000  0.98173000  1.0
  C  C255  1  0.12755000  0.61413000  0.74158000  1.0
  C  C256  1  0.11950000  0.65296000  0.72625000  1.0
  C  C257  1  0.07586000  0.66584000  0.73518000  1.0
  C  C258  1  0.66567000  0.10531000  0.19466000  1.0
  C  C259  1  0.65348000  0.14640000  0.18847000  1.0
  C  C260  1  0.61884000  0.14921000  0.16254000  1.0
  C  C261  1  0.62451000  0.75748000  0.44485000  1.0
  C  C262  1  0.60673000  0.72007000  0.45716000  1.0
  C  C263  1  0.57695000  0.72606000  0.48638000  1.0
  C  C264  1  0.77551000  0.81148000  0.12421000  1.0
  C  C265  1  0.81839000  0.80863000  0.12225000  1.0
  C  C266  1  0.83975000  0.83031000  0.09906000  1.0
  C  C267  1  0.81869000  0.85454000  0.07761000  1.0
  C  C268  1  0.77586000  0.85651000  0.07926000  1.0
  C  C269  1  0.75421000  0.83541000  0.10253000  1.0
  C  C270  1  0.75393000  0.79085000  0.14825000  1.0
  C  C271  1  0.71119000  0.79456000  0.15075000  1.0
  C  C272  1  0.69015000  0.77514000  0.17550000  1.0
  C  C273  1  0.71116000  0.75173000  0.19762000  1.0
  C  C274  1  0.75361000  0.74737000  0.19449000  1.0
  C  C275  1  0.77519000  0.76703000  0.17010000  1.0
  C  C276  1  0.71163000  0.83835000  0.10487000  1.0
  C  C277  1  0.69032000  0.81818000  0.12883000  1.0
  C  C278  1  0.83916000  0.78453000  0.14387000  1.0
  C  C279  1  0.81774000  0.76384000  0.16751000  1.0
  C  C280  1  0.76449000  0.04975000  0.51865000  1.0
  C  C281  1  0.78533000  0.03248000  0.49231000  1.0
  C  C282  1  0.82148000  0.01281000  0.49868000  1.0
  C  C283  1  0.83651000  0.00932000  0.53119000  1.0
  C  C284  1  0.81585000  0.02699000  0.55725000  1.0
  C  C285  1  0.78017000  0.04746000  0.55115000  1.0
  C  C286  1  0.72738000  0.06855000  0.51261000  1.0
  C  C287  1  0.70642000  0.08561000  0.53900000  1.0
  C  C288  1  0.66870000  0.10281000  0.53308000  1.0
  C  C289  1  0.65101000  0.10211000  0.50136000  1.0
  C  C290  1  0.67254000  0.08596000  0.47499000  1.0
  C  C291  1  0.71074000  0.06938000  0.48037000  1.0
  C  C292  1  0.75940000  0.06508000  0.57709000  1.0
  C  C293  1  0.72296000  0.08416000  0.57103000  1.0
  C  C294  1  0.76910000  0.03446000  0.46018000  1.0
  C  C295  1  0.73204000  0.05260000  0.45429000  1.0
  C  C296  1  0.06528000  0.79986000  0.99003000  1.0
  C  C297  1  0.08199000  0.83193000  0.00495000  1.0
  C  C298  1  0.05615000  0.85737000  0.02082000  1.0
  C  C299  1  0.01376000  0.85159000  0.02115000  1.0
  C  C300  1  0.99748000  0.81901000  0.00719000  1.0
  C  C301  1  0.02296000  0.79303000  0.99176000  1.0
  C  C302  1  0.09067000  0.77538000  0.97221000  1.0
  C  C303  1  0.07373000  0.74392000  0.95648000  1.0
  C  C304  1  0.09847000  0.72148000  0.93653000  1.0
  C  C305  1  0.13967000  0.73058000  0.93148000  1.0
  C  C306  1  0.15682000  0.76094000  0.94843000  1.0
  C  C307  1  0.13261000  0.78334000  0.96886000  1.0
  C  C308  1  0.00668000  0.76099000  0.97697000  1.0
  C  C309  1  0.03188000  0.73659000  0.95956000  1.0
  C  C310  1  0.12404000  0.83871000  0.00261000  1.0
  C  C311  1  0.14911000  0.81471000  0.98460000  1.0
  C  C312  1  0.06367000  0.04543000  0.63286000  1.0
  C  C313  1  0.03731000  0.02154000  0.65045000  1.0
  C  C314  1  0.00478000  0.00428000  0.63387000  1.0
  C  C315  1  0.99854000  0.01020000  0.59975000  1.0
  C  C316  1  0.02363000  0.03571000  0.58288000  1.0
  C  C317  1  0.05627000  0.05313000  0.59912000  1.0
  C  C318  1  0.09847000  0.06034000  0.64861000  1.0
  C  C319  1  0.12583000  0.08281000  0.63052000  1.0
  C  C320  1  0.16223000  0.09463000  0.64538000  1.0
  C  C321  1  0.17183000  0.08398000  0.67796000  1.0
  C  C322  1  0.14338000  0.06359000  0.69657000  1.0
  C  C323  1  0.10686000  0.05137000  0.68198000  1.0
  C  C324  1  0.08276000  0.07682000  0.58181000  1.0
  C  C325  1  0.11727000  0.09151000  0.59737000  1.0
  C  C326  1  0.04507000  0.01400000  0.68399000  1.0
  C  C327  1  0.07952000  0.02881000  0.69962000  1.0
  C  C328  1  0.01262000  0.07642000  0.97973000  1.0
  C  C329  1  0.01740000  0.05352000  0.00790000  1.0
  C  C330  1  0.99519000  0.02021000  0.01031000  1.0
  C  C331  1  0.96755000  0.00989000  0.98524000  1.0
  C  C332  1  0.96458000  0.03197000  0.95651000  1.0
  C  C333  1  0.98685000  0.06514000  0.95362000  1.0
  C  C334  1  0.03223000  0.11138000  0.97832000  1.0
  C  C335  1  0.02616000  0.13488000  0.95070000  1.0
  C  C336  1  0.04261000  0.17091000  0.95084000  1.0
  C  C337  1  0.06422000  0.18398000  0.97854000  1.0
  C  C338  1  0.07238000  0.15969000  0.00505000  1.0
  C  C339  1  0.05632000  0.12350000  0.00521000  1.0
  C  C340  1  0.98240000  0.08807000  0.92568000  1.0
  C  C341  1  0.00194000  0.12261000  0.92422000  1.0
  C  C342  1  0.04288000  0.06518000  0.03384000  1.0
  C  C343  1  0.06211000  0.09989000  0.03253000  1.0
  C  C344  1  0.00921000  0.79646000  0.67475000  1.0
  C  C345  1  0.99982000  0.82767000  0.69442000  1.0
  C  C346  1  0.97870000  0.85777000  0.68040000  1.0
  C  C347  1  0.96688000  0.85719000  0.64691000  1.0
  C  C348  1  0.97725000  0.82639000  0.62724000  1.0
  C  C349  1  0.99811000  0.79592000  0.64099000  1.0
  C  C350  1  0.02891000  0.76540000  0.68905000  1.0
  C  C351  1  0.03714000  0.73370000  0.66963000  1.0
  C  C352  1  0.05441000  0.70209000  0.68449000  1.0
  C  C353  1  0.06340000  0.70172000  0.71851000  1.0
  C  C354  1  0.05680000  0.73391000  0.73742000  1.0
  C  C355  1  0.03931000  0.76567000  0.72297000  1.0
  C  C356  1  0.00739000  0.76461000  0.62173000  1.0
  C  C357  1  0.02666000  0.73374000  0.63594000  1.0
  C  C358  1  0.01111000  0.82796000  0.72795000  1.0
  C  C359  1  0.03073000  0.79724000  0.74209000  1.0
  C  C360  1  0.76947000  0.03761000  0.09839000  1.0
  C  C361  1  0.81212000  0.03772000  0.10329000  1.0
  C  C362  1  0.83719000  0.01751000  0.08181000  1.0
  C  C363  1  0.82025000  0.99776000  0.05515000  1.0
  C  C364  1  0.77793000  0.99887000  0.04963000  1.0
  C  C365  1  0.75235000  0.01826000  0.07136000  1.0
  C  C366  1  0.74387000  0.05614000  0.12099000  1.0
  C  C367  1  0.70112000  0.05469000  0.11691000  1.0
  C  C368  1  0.67581000  0.07138000  0.14054000  1.0
  C  C369  1  0.69276000  0.08981000  0.16793000  1.0
  C  C370  1  0.73533000  0.09254000  0.17110000  1.0
  C  C371  1  0.76101000  0.07534000  0.14809000  1.0
  C  C372  1  0.70987000  0.01785000  0.06706000  1.0
  C  C373  1  0.68446000  0.03578000  0.08971000  1.0
  C  C374  1  0.82884000  0.05736000  0.13004000  1.0
  C  C375  1  0.80351000  0.07618000  0.15216000  1.0
  C  C376  1  0.73971000  0.83194000  0.52843000  1.0
  C  C377  1  0.72695000  0.86181000  0.54853000  1.0
  C  C378  1  0.75607000  0.88251000  0.56617000  1.0
  C  C379  1  0.79784000  0.87411000  0.56352000  1.0
  C  C380  1  0.81019000  0.84372000  0.54408000  1.0
  C  C381  1  0.78143000  0.82255000  0.52659000  1.0
  C  C382  1  0.71083000  0.81198000  0.50953000  1.0
  C  C383  1  0.72371000  0.78248000  0.48905000  1.0
  C  C384  1  0.69513000  0.76391000  0.46917000  1.0
  C  C385  1  0.65402000  0.77495000  0.46902000  1.0
  C  C386  1  0.64110000  0.80351000  0.49027000  1.0
  C  C387  1  0.66926000  0.82214000  0.51051000  1.0
  C  C388  1  0.79376000  0.79267000  0.50667000  1.0
  C  C389  1  0.76513000  0.77275000  0.48812000  1.0
  C  C390  1  0.68539000  0.87104000  0.54994000  1.0
  C  C391  1  0.65681000  0.85142000  0.53106000  1.0
  C  C392  1  0.33054000  0.28730000  0.68842000  1.0
  C  C393  1  0.35015000  0.30421000  0.71561000  1.0
  C  C394  1  0.37197000  0.33737000  0.71092000  1.0
  C  C395  1  0.37475000  0.35377000  0.67932000  1.0
  C  C396  1  0.35324000  0.33777000  0.65273000  1.0
  C  C397  1  0.33147000  0.30452000  0.65701000  1.0
  C  C398  1  0.31136000  0.25241000  0.69235000  1.0
  C  C399  1  0.29334000  0.23476000  0.66480000  1.0
  C  C400  1  0.27747000  0.19875000  0.66824000  1.0
  C  C401  1  0.27977000  0.18005000  0.69876000  1.0
  C  C402  1  0.29549000  0.19855000  0.72659000  1.0
  C  C403  1  0.31169000  0.23453000  0.72350000  1.0
  C  C404  1  0.31204000  0.28736000  0.63010000  1.0
  C  C405  1  0.29316000  0.25276000  0.63395000  1.0
  C  C406  1  0.34896000  0.28684000  0.74674000  1.0
  C  C407  1  0.32986000  0.25233000  0.75066000  1.0
  C  C408  1  0.32649000  0.56609000  0.97660000  1.0
  C  C409  1  0.33737000  0.56686000  0.01043000  1.0
  C  C410  1  0.36901000  0.54383000  0.02203000  1.0
  C  C411  1  0.39056000  0.52093000  0.00000000  1.0
  C  C412  1  0.37999000  0.52080000  0.96628000  1.0
  C  C413  1  0.34777000  0.54279000  0.95452000  1.0
  C  C414  1  0.29403000  0.58834000  0.96488000  1.0
  C  C415  1  0.28227000  0.58645000  0.93132000  1.0
  C  C416  1  0.24901000  0.60749000  0.92011000  1.0
  C  C417  1  0.22792000  0.63121000  0.94174000  1.0
  C  C418  1  0.24051000  0.63383000  0.97495000  1.0
  C  C419  1  0.27302000  0.61206000  0.98680000  1.0
  C  C420  1  0.33623000  0.54163000  0.92108000  1.0
  C  C421  1  0.30359000  0.56311000  0.90962000  1.0
  C  C422  1  0.31626000  0.59055000  0.03202000  1.0
  C  C423  1  0.28455000  0.61312000  0.02027000  1.0
  C  C424  1  0.53625000  0.29802000  0.56675000  1.0
  C  C425  1  0.52931000  0.33326000  0.55234000  1.0
  C  C426  1  0.51710000  0.36305000  0.57235000  1.0
  C  C427  1  0.51177000  0.35810000  0.60661000  1.0
  C  C428  1  0.52073000  0.32335000  0.62100000  1.0
  C  C429  1  0.53252000  0.29320000  0.60127000  1.0
  C  C430  1  0.54560000  0.26727000  0.54649000  1.0
  C  C431  1  0.55088000  0.23170000  0.56076000  1.0
  C  C432  1  0.55743000  0.20086000  0.54026000  1.0
  C  C433  1  0.55850000  0.20516000  0.50573000  1.0
  C  C434  1  0.55533000  0.24087000  0.49175000  1.0
  C  C435  1  0.54841000  0.27193000  0.51188000  1.0
  C  C436  1  0.53914000  0.25794000  0.61529000  1.0
  C  C437  1  0.54819000  0.22744000  0.59520000  1.0
  C  C438  1  0.53332000  0.33777000  0.51800000  1.0
  C  C439  1  0.54290000  0.30737000  0.49795000  1.0
  C  C440  1  0.58348000  0.57064000  0.12402000  1.0
  C  C441  1  0.55929000  0.54285000  0.13894000  1.0
  C  C442  1  0.53547000  0.51935000  0.11906000  1.0
  C  C443  1  0.53568000  0.52300000  0.08434000  1.0
  C  C444  1  0.55965000  0.55104000  0.06971000  1.0
  C  C445  1  0.58344000  0.57489000  0.08929000  1.0
  C  C446  1  0.60792000  0.59410000  0.14383000  1.0
  C  C447  1  0.63204000  0.62194000  0.12888000  1.0
  C  C448  1  0.65636000  0.64502000  0.14871000  1.0
  C  C449  1  0.65734000  0.64030000  0.18323000  1.0
  C  C450  1  0.63302000  0.61274000  0.19803000  1.0
  C  C451  1  0.60827000  0.58961000  0.17855000  1.0
  C  C452  1  0.60743000  0.60280000  0.07473000  1.0
  C  C453  1  0.63144000  0.62616000  0.09436000  1.0
  C  C454  1  0.55962000  0.53886000  0.17350000  1.0
  C  C455  1  0.58390000  0.56203000  0.19313000  1.0
  C  C456  1  0.50112000  0.59488000  0.53882000  1.0
  C  C457  1  0.46127000  0.58521000  0.52876000  1.0
  C  C458  1  0.44206000  0.55418000  0.54293000  1.0
  C  C459  1  0.46192000  0.53291000  0.56738000  1.0
  C  C460  1  0.50165000  0.54272000  0.57731000  1.0
  C  C461  1  0.52147000  0.57342000  0.56304000  1.0
  C  C462  1  0.52049000  0.62627000  0.52487000  1.0
  C  C463  1  0.56037000  0.63598000  0.53491000  1.0
  C  C464  1  0.57902000  0.66774000  0.52147000  1.0
  C  C465  1  0.55796000  0.69033000  0.49872000  1.0
  C  C466  1  0.51855000  0.68014000  0.48840000  1.0
  C  C467  1  0.49974000  0.64821000  0.50122000  1.0
  C  C468  1  0.56124000  0.58316000  0.57265000  1.0
  C  C469  1  0.58055000  0.61409000  0.55863000  1.0
  C  C470  1  0.44120000  0.60691000  0.50483000  1.0
  C  C471  1  0.46023000  0.63819000  0.49125000  1.0
  C  C472  1  0.56184000  0.29366000  0.12454000  1.0
  C  C473  1  0.58756000  0.31759000  0.10638000  1.0
  C  C474  1  0.57204000  0.35111000  0.09384000  1.0
  C  C475  1  0.53092000  0.36089000  0.09872000  1.0
  C  C476  1  0.50566000  0.33726000  0.11744000  1.0
  C  C477  1  0.52088000  0.30374000  0.13042000  1.0
  C  C478  1  0.57684000  0.25918000  0.13613000  1.0
  C  C479  1  0.55093000  0.23494000  0.15382000  1.0
  C  C480  1  0.56546000  0.19996000  0.16382000  1.0
  C  C481  1  0.60529000  0.18867000  0.15581000  1.0
  C  C482  1  0.63134000  0.21336000  0.13909000  1.0
  C  C483  1  0.61740000  0.24857000  0.12923000  1.0
  C  C484  1  0.49565000  0.27973000  0.14862000  1.0
  C  C485  1  0.51057000  0.24567000  0.16027000  1.0
  C  C486  1  0.62815000  0.30717000  0.10044000  1.0
  C  C487  1  0.64291000  0.27292000  0.11170000  1.0
  C  C488  1  0.27730000  0.55279000  0.69319000  1.0
  C  C489  1  0.31410000  0.55942000  0.71040000  1.0
  C  C490  1  0.35064000  0.54421000  0.69850000  1.0
  C  C491  1  0.35063000  0.52166000  0.67014000  1.0
  C  C492  1  0.31390000  0.51524000  0.65307000  1.0
  C  C493  1  0.27730000  0.53097000  0.66421000  1.0
  C  C494  1  0.24039000  0.56776000  0.70513000  1.0
  C  C495  1  0.20367000  0.56163000  0.68763000  1.0
  C  C496  1  0.16715000  0.57679000  0.69957000  1.0
  C  C497  1  0.16675000  0.59709000  0.72923000  1.0
  C  C498  1  0.20329000  0.60273000  0.74668000  1.0
  C  C499  1  0.24021000  0.58866000  0.73464000  1.0
  C  C500  1  0.24062000  0.52502000  0.64704000  1.0
  C  C501  1  0.20416000  0.54041000  0.65855000  1.0
  C  C502  1  0.31361000  0.58074000  0.73945000  1.0
  C  C503  1  0.27695000  0.59507000  0.75156000  1.0
  C  C504  1  0.28657000  0.33649000  0.00017000  1.0
  C  C505  1  0.30436000  0.35616000  0.97363000  1.0
  C  C506  1  0.34055000  0.37618000  0.97878000  1.0
  C  C507  1  0.35901000  0.37721000  0.01027000  1.0
  C  C508  1  0.34178000  0.35652000  0.03633000  1.0
  C  C509  1  0.30570000  0.33622000  0.03149000  1.0
  C  C510  1  0.24892000  0.31805000  0.99566000  1.0
  C  C511  1  0.23055000  0.29928000  0.02248000  1.0
  C  C512  1  0.19177000  0.28339000  0.01847000  1.0
  C  C513  1  0.17078000  0.28681000  0.98825000  1.0
  C  C514  1  0.19013000  0.30371000  0.96111000  1.0
  C  C515  1  0.22902000  0.31955000  0.96466000  1.0
  C  C516  1  0.28774000  0.31649000  0.05769000  1.0
  C  C517  1  0.25053000  0.29815000  0.05322000  1.0
  C  C518  1  0.28497000  0.35638000  0.94262000  1.0
  C  C519  1  0.24761000  0.33826000  0.93819000  1.0
  C  C520  1  0.62636000  0.69346000  0.23874000  1.0
  C  C521  1  0.58543000  0.69060000  0.22871000  1.0
  C  C522  1  0.55472000  0.68392000  0.25187000  1.0
  C  C523  1  0.56410000  0.67972000  0.28564000  1.0
  C  C524  1  0.60509000  0.68226000  0.29568000  1.0
  C  C525  1  0.63595000  0.68819000  0.27242000  1.0
  C  C526  1  0.52961000  0.67691000  0.31044000  1.0
  C  C527  1  0.58687000  0.70026000  0.42798000  1.0
  C  C528  1  0.60680000  0.67009000  0.41291000  1.0
  C  C529  1  0.59086000  0.65382000  0.38426000  1.0
  C  C530  1  0.55475000  0.66747000  0.36994000  1.0
  C  C531  1  0.53418000  0.69690000  0.38552000  1.0
  C  C532  1  0.55055000  0.71371000  0.41369000  1.0
  C  C533  1  0.53702000  0.64935000  0.33931000  1.0
  C  C534  1  0.62001000  0.15658000  0.44570000  1.0
  C  C535  1  0.65208000  0.18018000  0.43601000  1.0
  C  C536  1  0.66359000  0.18260000  0.40277000  1.0
  C  C537  1  0.64339000  0.16129000  0.37871000  1.0
  C  C538  1  0.61131000  0.13785000  0.38827000  1.0
  C  C539  1  0.59968000  0.13553000  0.42138000  1.0
  C  C540  1  0.65479000  0.16421000  0.34273000  1.0
  C  C541  1  0.64192000  0.16388000  0.22136000  1.0
  C  C542  1  0.66863000  0.18929000  0.23656000  1.0
  C  C543  1  0.66265000  0.20006000  0.26939000  1.0
  C  C544  1  0.62981000  0.18568000  0.28758000  1.0
  C  C545  1  0.60215000  0.16149000  0.27207000  1.0
  C  C546  1  0.60804000  0.15077000  0.23925000  1.0
  C  C547  1  0.62721000  0.19208000  0.32435000  1.0
  C  C548  1  0.23057000  0.68961000  0.88553000  1.0
  C  C549  1  0.22174000  0.66672000  0.85820000  1.0
  C  C550  1  0.24277000  0.67112000  0.82848000  1.0
  C  C551  1  0.27132000  0.69980000  0.82469000  1.0
  C  C552  1  0.28103000  0.72214000  0.85202000  1.0
  C  C553  1  0.26112000  0.71688000  0.88222000  1.0
  C  C554  1  0.28773000  0.70923000  0.79083000  1.0
  C  C555  1  0.15271000  0.68025000  0.73679000  1.0
  C  C556  1  0.18690000  0.68522000  0.71625000  1.0
  C  C557  1  0.22127000  0.70435000  0.72762000  1.0
  C  C558  1  0.22177000  0.71993000  0.75943000  1.0
  C  C559  1  0.18694000  0.71674000  0.77938000  1.0
  C  C560  1  0.15316000  0.69637000  0.76854000  1.0
  C  C561  1  0.26028000  0.73762000  0.77276000  1.0
  C  C562  1  0.20329000  0.14224000  0.73275000  1.0
  C  C563  1  0.21431000  0.12372000  0.76221000  1.0
  C  C564  1  0.19682000  0.13372000  0.79234000  1.0
  C  C565  1  0.16792000  0.16242000  0.79378000  1.0
  C  C566  1  0.15718000  0.18135000  0.76459000  1.0
  C  C567  1  0.17457000  0.17124000  0.73432000  1.0
  C  C568  1  0.15026000  0.17378000  0.82665000  1.0
  C  C569  1  0.13424000  0.22552000  0.94275000  1.0
  C  C570  1  0.11749000  0.24364000  0.91491000  1.0
  C  C571  1  0.13190000  0.23591000  0.88316000  1.0
  C  C572  1  0.16326000  0.20990000  0.87855000  1.0
  C  C573  1  0.17940000  0.19114000  0.90615000  1.0
  C  C574  1  0.16518000  0.19902000  0.93796000  1.0
  C  C575  1  0.17854000  0.20143000  0.84423000  1.0
  O  O576  1  0.88077000  0.88448000  0.05807000  1.0
  O  O577  1  0.94830000  0.88206000  0.02308000  1.0
  O  O578  1  0.83546000  0.96845000  0.00338000  1.0
  O  O579  1  0.87782000  0.95770000  0.04898000  1.0
  O  O580  1  0.88594000  0.91058000  0.99753000  1.0
  O  O581  1  0.82054000  0.89739000  0.03166000  1.0
  O  O582  1  0.99973000  0.90662000  0.05396000  1.0
  O  O583  1  0.94634000  0.95492000  0.01490000  1.0
  O  O584  1  0.90568000  0.97752000  0.97189000  1.0
  O  O585  1  0.86685000  0.89691000  0.56901000  1.0
  O  O586  1  0.93653000  0.89069000  0.60067000  1.0
  O  O587  1  0.89910000  0.98045000  0.51417000  1.0
  O  O588  1  0.87514000  0.96985000  0.56754000  1.0
  O  O589  1  0.93216000  0.92246000  0.54485000  1.0
  O  O590  1  0.81811000  0.92327000  0.60135000  1.0
  O  O591  1  0.92799000  0.91427000  0.65223000  1.0
  O  O592  1  0.94662000  0.96291000  0.59790000  1.0
  O  O593  1  0.96914000  0.98930000  0.54843000  1.0
  O  O594  1  0.38637000  0.47218000  0.64229000  1.0
  O  O595  1  0.45569000  0.48491000  0.60946000  1.0
  O  O596  1  0.42949000  0.39347000  0.69705000  1.0
  O  O597  1  0.40361000  0.40091000  0.64374000  1.0
  O  O598  1  0.45751000  0.45180000  0.66510000  1.0
  O  O599  1  0.42418000  0.51830000  0.66659000  1.0
  O  O600  1  0.40792000  0.48673000  0.56881000  1.0
  O  O601  1  0.47231000  0.41405000  0.61119000  1.0
  O  O602  1  0.49447000  0.38470000  0.65935000  1.0
  O  O603  1  0.40782000  0.40698000  0.04695000  1.0
  O  O604  1  0.47445000  0.40131000  0.08318000  1.0
  O  O605  1  0.45439000  0.49047000  0.99145000  1.0
  O  O606  1  0.41950000  0.48005000  0.04100000  1.0
  O  O607  1  0.47826000  0.43114000  0.02532000  1.0
  O  O608  1  0.41157000  0.41941000  0.99142000  1.0
  O  O609  1  0.53896000  0.41767000  0.06730000  1.0
  O  O610  1  0.48593000  0.47430000  0.07824000  1.0
  O  O611  1  0.51890000  0.49672000  0.03126000  1.0
