# generated using pymatgen
data_ZnH132C174(NO)6
_symmetry_space_group_name_H-M   'P 1'
_cell_length_a   32.37684853
_cell_length_b   33.17580000
_cell_length_c   48.21520000
_cell_angle_alpha   86.74100000
_cell_angle_beta   86.63242646
_cell_angle_gamma   61.64137131
_symmetry_Int_Tables_number   1
_chemical_formula_structural   ZnH132C174(NO)6
_chemical_formula_sum   'Zn2 H264 C348 N12 O12'
_cell_volume   45470.74444863
_cell_formula_units_Z   2
loop_
 _symmetry_equiv_pos_site_id
 _symmetry_equiv_pos_as_xyz
  1  'x, y, z'
loop_
 _atom_site_type_symbol
 _atom_site_label
 _atom_site_symmetry_multiplicity
 _atom_site_fract_x
 _atom_site_fract_y
 _atom_site_fract_z
 _atom_site_occupancy
  Zn  Zn0  1  0.29804000  0.33987000  0.27159000  1.0
  Zn  Zn1  1  0.59594000  0.68760000  0.78615000  1.0
  H  H2  1  0.25596000  0.32341000  0.21882000  1.0
  H  H3  1  0.40513000  0.18534000  0.23932000  1.0
  H  H4  1  0.36297000  0.18857000  0.19820000  1.0
  H  H5  1  0.34959000  0.33282000  0.32681000  1.0
  H  H6  1  0.43493000  0.18688000  0.27859000  1.0
  H  H7  1  0.46243000  0.19504000  0.32259000  1.0
  H  H8  1  0.35448000  0.32102000  0.21362000  1.0
  H  H9  1  0.36901000  0.44220000  0.25980000  1.0
  H  H10  1  0.40674000  0.41772000  0.21410000  1.0
  H  H11  1  0.30887000  0.26118000  0.31520000  1.0
  H  H12  1  0.14198000  0.35229000  0.29305000  1.0
  H  H13  1  0.16668000  0.28536000  0.32455000  1.0
  H  H14  1  0.23670000  0.38303000  0.32569000  1.0
  H  H15  1  0.33163000  0.46073000  0.30014000  1.0
  H  H16  1  0.28084000  0.48253000  0.34187000  1.0
  H  H17  1  0.26864000  0.41182000  0.22111000  1.0
  H  H18  1  0.12799000  0.40494000  0.26038000  1.0
  H  H19  1  0.12180000  0.45277000  0.21904000  1.0
  H  H20  1  0.65876000  0.66380000  0.73100000  1.0
  H  H21  1  0.54454000  0.82852000  0.72848000  1.0
  H  H22  1  0.59878000  0.79562000  0.68883000  1.0
  H  H23  1  0.52999000  0.73170000  0.83893000  1.0
  H  H24  1  0.50293000  0.85284000  0.76714000  1.0
  H  H25  1  0.46170000  0.87324000  0.81217000  1.0
  H  H26  1  0.54804000  0.70333000  0.72788000  1.0
  H  H27  1  0.48124000  0.62968000  0.79456000  1.0
  H  H28  1  0.45608000  0.64522000  0.74687000  1.0
  H  H29  1  0.60413000  0.76122000  0.82128000  1.0
  H  H30  1  0.76216000  0.63139000  0.80610000  1.0
  H  H31  1  0.75244000  0.69435000  0.83370000  1.0
  H  H32  1  0.63840000  0.65309000  0.84512000  1.0
  H  H33  1  0.50872000  0.61690000  0.83613000  1.0
  H  H34  1  0.55070000  0.59677000  0.87928000  1.0
  H  H35  1  0.60860000  0.59962000  0.75723000  1.0
  H  H36  1  0.76402000  0.57571000  0.78299000  1.0
  H  H37  1  0.75778000  0.51499000  0.76043000  1.0
  H  H38  1  0.62246000  0.10704000  0.18005000  1.0
  H  H39  1  0.62216000  0.24045000  0.13054000  1.0
  H  H40  1  0.61590000  0.09547000  0.12150000  1.0
  H  H41  1  0.74089000  0.88576000  0.66839000  1.0
  H  H42  1  0.84190000  0.76067000  0.60716000  1.0
  H  H43  1  0.71665000  0.92210000  0.61159000  1.0
  H  H44  1  0.05315000  0.63978000  0.17322000  1.0
  H  H45  1  0.17792000  0.67329000  0.13428000  1.0
  H  H46  1  0.01429000  0.70116000  0.12709000  1.0
  H  H47  1  0.33583000  0.74718000  0.65877000  1.0
  H  H48  1  0.29011000  0.90734000  0.62888000  1.0
  H  H49  1  0.27489000  0.76844000  0.61436000  1.0
  H  H50  1  0.09727000  0.26675000  0.18147000  1.0
  H  H51  1  0.18866000  0.11990000  0.13547000  1.0
  H  H52  1  0.04044000  0.26697000  0.13828000  1.0
  H  H53  1  0.63105000  0.47061000  0.63962000  1.0
  H  H54  1  0.77334000  0.47188000  0.60026000  1.0
  H  H55  1  0.66006000  0.41317000  0.59094000  1.0
  H  H56  1  0.13671000  0.30615000  0.43352000  1.0
  H  H57  1  0.22074000  0.16488000  0.48957000  1.0
  H  H58  1  0.07200000  0.30925000  0.47849000  1.0
  H  H59  1  0.80120000  0.45253000  0.90976000  1.0
  H  H60  1  0.72092000  0.36261000  0.93972000  1.0
  H  H61  1  0.85919000  0.38629000  0.95048000  1.0
  H  H62  1  0.65977000  0.23791000  0.36678000  1.0
  H  H63  1  0.64501000  0.11801000  0.42345000  1.0
  H  H64  1  0.65354000  0.26311000  0.42448000  1.0
  H  H65  1  0.75695000  0.90967000  0.86945000  1.0
  H  H66  1  0.86107000  0.78243000  0.92974000  1.0
  H  H67  1  0.72046000  0.93560000  0.92624000  1.0
  H  H68  1  0.21932000  0.61206000  0.38924000  1.0
  H  H69  1  0.05087000  0.69513000  0.41559000  1.0
  H  H70  1  0.20847000  0.68121000  0.42666000  1.0
  H  H71  1  0.32174000  0.91338000  0.89759000  1.0
  H  H72  1  0.24857000  0.81836000  0.93319000  1.0
  H  H73  1  0.26108000  0.96006000  0.94262000  1.0
  H  H74  1  0.38196000  0.34182000  0.17071000  1.0
  H  H75  1  0.39956000  0.38601000  0.16956000  1.0
  H  H76  1  0.43679000  0.26347000  0.19432000  1.0
  H  H77  1  0.48147000  0.36399000  0.16877000  1.0
  H  H78  1  0.62133000  0.22682000  0.18184000  1.0
  H  H79  1  0.60356000  0.18671000  0.19676000  1.0
  H  H80  1  0.56347000  0.30360000  0.16735000  1.0
  H  H81  1  0.51890000  0.20321000  0.19340000  1.0
  H  H82  1  0.68938000  0.66908000  0.68642000  1.0
  H  H83  1  0.64546000  0.71079000  0.66431000  1.0
  H  H84  1  0.71558000  0.72753000  0.71924000  1.0
  H  H85  1  0.69139000  0.73102000  0.63181000  1.0
  H  H86  1  0.79955000  0.79777000  0.67605000  1.0
  H  H87  1  0.83202000  0.74856000  0.65519000  1.0
  H  H88  1  0.74620000  0.76125000  0.62088000  1.0
  H  H89  1  0.76913000  0.75943000  0.70841000  1.0
  H  H90  1  0.22684000  0.43800000  0.17685000  1.0
  H  H91  1  0.16454000  0.45925000  0.17705000  1.0
  H  H92  1  0.12486000  0.52867000  0.21972000  1.0
  H  H93  1  0.23939000  0.49938000  0.15985000  1.0
  H  H94  1  0.12038000  0.67078000  0.20027000  1.0
  H  H95  1  0.17563000  0.65717000  0.18291000  1.0
  H  H96  1  0.21792000  0.58086000  0.15657000  1.0
  H  H97  1  0.10456000  0.60965000  0.21704000  1.0
  H  H98  1  0.51661000  0.68070000  0.69033000  1.0
  H  H99  1  0.47800000  0.65643000  0.69834000  1.0
  H  H100  1  0.39871000  0.72035000  0.73072000  1.0
  H  H101  1  0.47599000  0.74885000  0.66328000  1.0
  H  H102  1  0.28695000  0.85665000  0.68997000  1.0
  H  H103  1  0.32094000  0.88052000  0.67271000  1.0
  H  H104  1  0.40398000  0.81792000  0.65018000  1.0
  H  H105  1  0.32775000  0.78974000  0.71817000  1.0
  H  H106  1  0.25546000  0.29619000  0.17467000  1.0
  H  H107  1  0.30778000  0.24766000  0.16177000  1.0
  H  H108  1  0.20601000  0.27407000  0.21411000  1.0
  H  H109  1  0.29827000  0.18395000  0.15088000  1.0
  H  H110  1  0.19665000  0.12284000  0.18444000  1.0
  H  H111  1  0.15129000  0.16729000  0.20455000  1.0
  H  H112  1  0.25237000  0.14258000  0.15312000  1.0
  H  H113  1  0.16081000  0.23196000  0.21681000  1.0
  H  H114  1  0.70656000  0.48095000  0.75254000  1.0
  H  H115  1  0.64357000  0.51637000  0.75219000  1.0
  H  H116  1  0.60556000  0.56021000  0.70972000  1.0
  H  H117  1  0.75616000  0.47674000  0.71060000  1.0
  H  H118  1  0.65337000  0.55178000  0.61612000  1.0
  H  H119  1  0.71275000  0.54080000  0.61813000  1.0
  H  H120  1  0.76040000  0.48121000  0.65957000  1.0
  H  H121  1  0.60973000  0.56443000  0.65880000  1.0
  H  H122  1  0.23986000  0.20403000  0.32946000  1.0
  H  H123  1  0.29520000  0.20188000  0.33491000  1.0
  H  H124  1  0.27381000  0.27577000  0.37302000  1.0
  H  H125  1  0.21832000  0.18043000  0.37246000  1.0
  H  H126  1  0.26385000  0.19653000  0.46565000  1.0
  H  H127  1  0.23730000  0.25774000  0.46649000  1.0
  H  H128  1  0.20942000  0.18177000  0.42313000  1.0
  H  H129  1  0.26355000  0.27818000  0.42367000  1.0
  H  H130  1  0.64969000  0.62382000  0.89147000  1.0
  H  H131  1  0.60078000  0.62067000  0.90961000  1.0
  H  H132  1  0.70356000  0.55447000  0.85961000  1.0
  H  H133  1  0.61200000  0.54708000  0.92618000  1.0
  H  H134  1  0.71069000  0.39465000  0.89429000  1.0
  H  H135  1  0.75989000  0.39730000  0.87713000  1.0
  H  H136  1  0.65831000  0.46320000  0.92788000  1.0
  H  H137  1  0.74948000  0.47064000  0.86108000  1.0
  H  H138  1  0.41216000  0.30813000  0.35868000  1.0
  H  H139  1  0.40239000  0.26182000  0.37198000  1.0
  H  H140  1  0.49440000  0.28192000  0.32970000  1.0
  H  H141  1  0.46771000  0.19883000  0.39287000  1.0
  H  H142  1  0.63333000  0.12733000  0.37501000  1.0
  H  H143  1  0.64403000  0.16924000  0.35570000  1.0
  H  H144  1  0.55220000  0.15443000  0.40058000  1.0
  H  H145  1  0.57896000  0.23708000  0.33711000  1.0
  H  H146  1  0.64148000  0.80492000  0.83783000  1.0
  H  H147  1  0.64949000  0.76765000  0.86743000  1.0
  H  H148  1  0.71989000  0.73935000  0.89453000  1.0
  H  H149  1  0.70970000  0.81521000  0.81727000  1.0
  H  H150  1  0.85359000  0.76948000  0.88340000  1.0
  H  H151  1  0.83085000  0.82091000  0.86214000  1.0
  H  H152  1  0.77386000  0.82887000  0.83059000  1.0
  H  H153  1  0.78424000  0.75287000  0.90788000  1.0
  H  H154  1  0.19435000  0.43680000  0.36066000  1.0
  H  H155  1  0.24109000  0.43341000  0.38023000  1.0
  H  H156  1  0.19854000  0.49767000  0.40940000  1.0
  H  H157  1  0.17688000  0.51786000  0.32114000  1.0
  H  H158  1  0.11851000  0.66585000  0.35501000  1.0
  H  H159  1  0.07407000  0.65696000  0.37397000  1.0
  H  H160  1  0.13316000  0.60069000  0.32678000  1.0
  H  H161  1  0.15275000  0.58025000  0.41530000  1.0
  H  H162  1  0.49788000  0.79246000  0.87319000  1.0
  H  H163  1  0.46664000  0.85150000  0.86172000  1.0
  H  H164  1  0.39163000  0.86531000  0.82863000  1.0
  H  H165  1  0.44700000  0.77060000  0.89872000  1.0
  H  H166  1  0.26022000  0.86099000  0.87053000  1.0
  H  H167  1  0.28382000  0.80665000  0.88870000  1.0
  H  H168  1  0.36810000  0.78104000  0.91114000  1.0
  H  H169  1  0.31336000  0.87459000  0.84062000  1.0
  H  H170  1  0.69218000  0.35637000  0.98283000  1.0
  H  H171  1  0.64795000  0.31244000  0.99660000  1.0
  H  H172  1  0.62665000  0.27073000  0.03288000  1.0
  H  H173  1  0.74786000  0.24639000  0.07843000  1.0
  H  H174  1  0.76842000  0.28903000  0.04258000  1.0
  H  H175  1  0.68893000  0.22744000  0.10145000  1.0
  H  H176  1  0.79438000  0.29547000  0.99902000  1.0
  H  H177  1  0.63565000  0.20795000  0.05816000  1.0
  H  H178  1  0.74337000  0.96304000  0.58323000  1.0
  H  H179  1  0.73325000  0.03573000  0.56322000  1.0
  H  H180  1  0.71282000  0.09239000  0.52518000  1.0
  H  H181  1  0.71280000  0.99473000  0.46956000  1.0
  H  H182  1  0.73303000  0.93814000  0.50749000  1.0
  H  H183  1  0.70607000  0.06754000  0.44969000  1.0
  H  H184  1  0.77058000  0.88848000  0.54070000  1.0
  H  H185  1  0.66697000  0.14195000  0.49320000  1.0
  H  H186  1  0.98115000  0.76175000  0.09609000  1.0
  H  H187  1  0.91229000  0.81415000  0.07168000  1.0
  H  H188  1  0.86516000  0.83948000  0.03072000  1.0
  H  H189  1  0.98224000  0.74070000  0.98192000  1.0
  H  H190  1  0.02968000  0.71527000  0.02292000  1.0
  H  H191  1  0.91073000  0.80096000  0.95762000  1.0
  H  H192  1  0.06982000  0.71001000  0.05931000  1.0
  H  H193  1  0.82563000  0.82837000  0.99802000  1.0
  H  H194  1  0.20870000  0.79675000  0.58795000  1.0
  H  H195  1  0.18807000  0.74605000  0.56562000  1.0
  H  H196  1  0.17057000  0.71783000  0.52505000  1.0
  H  H197  1  0.20978000  0.80445000  0.47190000  1.0
  H  H198  1  0.22777000  0.83257000  0.51263000  1.0
  H  H199  1  0.19425000  0.74673000  0.45009000  1.0
  H  H200  1  0.26155000  0.83584000  0.55015000  1.0
  H  H201  1  0.12814000  0.72525000  0.48876000  1.0
  H  H202  1  0.19665000  0.00377000  0.97086000  1.0
  H  H203  1  0.14643000  0.07407000  0.99462000  1.0
  H  H204  1  0.12544000  0.12121000  0.03500000  1.0
  H  H205  1  0.21674000  0.00285000  0.08492000  1.0
  H  H206  1  0.23767000  0.95543000  0.04443000  1.0
  H  H207  1  0.16230000  0.07616000  0.10851000  1.0
  H  H208  1  0.23176000  0.91807000  0.00939000  1.0
  H  H209  1  0.14129000  0.15679000  0.06720000  1.0
  H  H210  1  0.04211000  0.31484000  0.52440000  1.0
  H  H211  1  0.97921000  0.36267000  0.55490000  1.0
  H  H212  1  0.89991000  0.39064000  0.57425000  1.0
  H  H213  1  0.89467000  0.27346000  0.54352000  1.0
  H  H214  1  0.97470000  0.24497000  0.52405000  1.0
  H  H215  1  0.82926000  0.32857000  0.57781000  1.0
  H  H216  1  0.05136000  0.22026000  0.51472000  1.0
  H  H217  1  0.82336000  0.42229000  0.56233000  1.0
  H  H218  1  0.08998000  0.77580000  0.07666000  1.0
  H  H219  1  0.09632000  0.83614000  0.04953000  1.0
  H  H220  1  0.13453000  0.86374000  0.01459000  1.0
  H  H221  1  0.25164000  0.72710000  0.00886000  1.0
  H  H222  1  0.21249000  0.69904000  0.04298000  1.0
  H  H223  1  0.25095000  0.78648000  0.97608000  1.0
  H  H224  1  0.18208000  0.68601000  0.08191000  1.0
  H  H225  1  0.18642000  0.88321000  0.99656000  1.0
  H  H226  1  0.22175000  0.96403000  0.60858000  1.0
  H  H227  1  0.17256000  0.04479000  0.59834000  1.0
  H  H228  1  0.15002000  0.11269000  0.56850000  1.0
  H  H229  1  0.23026000  0.02770000  0.49998000  1.0
  H  H230  1  0.25386000  0.95999000  0.52998000  1.0
  H  H231  1  0.19832000  0.10910000  0.49289000  1.0
  H  H232  1  0.25796000  0.90397000  0.55762000  1.0
  H  H233  1  0.12586000  0.16840000  0.53701000  1.0
  H  H234  1  0.91051000  0.31929000  0.97441000  1.0
  H  H235  1  0.98014000  0.30773000  0.99852000  1.0
  H  H236  1  0.03039000  0.27859000  0.03820000  1.0
  H  H237  1  0.92060000  0.26469000  0.08623000  1.0
  H  H238  1  0.87030000  0.29375000  0.04659000  1.0
  H  H239  1  0.99171000  0.25261000  0.11018000  1.0
  H  H240  1  0.82575000  0.34261000  0.01468000  1.0
  H  H241  1  0.07433000  0.22183000  0.06780000  1.0
  H  H242  1  0.70124000  0.33797000  0.58046000  1.0
  H  H243  1  0.69845000  0.26969000  0.56617000  1.0
  H  H244  1  0.69151000  0.22588000  0.52967000  1.0
  H  H245  1  0.73647000  0.29865000  0.46843000  1.0
  H  H246  1  0.74336000  0.34230000  0.50471000  1.0
  H  H247  1  0.71970000  0.24066000  0.45204000  1.0
  H  H248  1  0.76245000  0.36523000  0.54119000  1.0
  H  H249  1  0.66184000  0.21238000  0.49354000  1.0
  H  H250  1  0.73390000  0.97935000  0.95602000  1.0
  H  H251  1  0.71833000  0.04966000  0.97944000  1.0
  H  H252  1  0.69112000  0.09791000  0.01981000  1.0
  H  H253  1  0.68840000  0.98663000  0.06958000  1.0
  H  H254  1  0.71463000  0.93884000  0.02939000  1.0
  H  H255  1  0.67985000  0.05398000  0.09318000  1.0
  H  H256  1  0.76582000  0.89770000  0.99737000  1.0
  H  H257  1  0.64068000  0.13894000  0.05402000  1.0
  H  H258  1  0.02006000  0.69815000  0.46038000  1.0
  H  H259  1  0.93851000  0.72343000  0.47635000  1.0
  H  H260  1  0.87327000  0.76370000  0.50924000  1.0
  H  H261  1  0.94443000  0.83380000  0.53916000  1.0
  H  H262  1  0.00963000  0.79362000  0.50660000  1.0
  H  H263  1  0.86320000  0.85577000  0.55721000  1.0
  H  H264  1  0.05213000  0.76998000  0.46849000  1.0
  H  H265  1  0.84682000  0.77244000  0.55426000  1.0
  C  C266  1  0.35407000  0.25383000  0.25230000  1.0
  C  C267  1  0.28850000  0.29333000  0.22353000  1.0
  C  C268  1  0.37248000  0.21581000  0.23518000  1.0
  C  C269  1  0.30610000  0.25652000  0.20560000  1.0
  C  C270  1  0.34843000  0.21751000  0.21173000  1.0
  C  C271  1  0.21269000  0.34413000  0.28573000  1.0
  C  C272  1  0.27240000  0.28191000  0.31056000  1.0
  C  C273  1  0.17861000  0.33315000  0.29794000  1.0
  C  C274  1  0.23997000  0.26829000  0.32200000  1.0
  C  C275  1  0.19255000  0.29503000  0.31602000  1.0
  C  C276  1  0.33975000  0.39482000  0.26270000  1.0
  C  C277  1  0.35803000  0.34688000  0.22420000  1.0
  C  C278  1  0.36588000  0.41521000  0.25018000  1.0
  C  C279  1  0.38304000  0.36741000  0.21057000  1.0
  C  C280  1  0.38746000  0.40133000  0.22407000  1.0
  C  C281  1  0.31228000  0.40931000  0.28891000  1.0
  C  C282  1  0.25707000  0.40032000  0.31980000  1.0
  C  C283  1  0.31087000  0.44358000  0.30535000  1.0
  C  C284  1  0.25319000  0.43566000  0.33625000  1.0
  C  C285  1  0.28174000  0.45617000  0.32920000  1.0
  C  C286  1  0.20329000  0.37950000  0.26376000  1.0
  C  C287  1  0.23804000  0.41059000  0.23019000  1.0
  C  C288  1  0.15911000  0.40634000  0.25229000  1.0
  C  C289  1  0.19521000  0.43562000  0.21702000  1.0
  C  C290  1  0.15540000  0.43398000  0.22874000  1.0
  C  C291  1  0.37624000  0.25623000  0.27740000  1.0
  C  C292  1  0.36878000  0.30149000  0.31572000  1.0
  C  C293  1  0.41640000  0.21942000  0.28856000  1.0
  C  C294  1  0.40873000  0.26559000  0.32770000  1.0
  C  C295  1  0.43226000  0.22411000  0.31380000  1.0
  C  C296  1  0.57151000  0.76399000  0.75260000  1.0
  C  C297  1  0.63410000  0.69991000  0.73074000  1.0
  C  C298  1  0.56954000  0.79247000  0.72946000  1.0
  C  C299  1  0.63343000  0.72718000  0.70728000  1.0
  C  C300  1  0.60046000  0.77378000  0.70678000  1.0
  C  C301  1  0.68764000  0.66042000  0.79810000  1.0
  C  C302  1  0.63852000  0.73277000  0.81760000  1.0
  C  C303  1  0.72730000  0.65972000  0.80901000  1.0
  C  C304  1  0.67688000  0.73325000  0.82938000  1.0
  C  C305  1  0.72173000  0.69601000  0.82482000  1.0
  C  C306  1  0.52987000  0.65790000  0.78835000  1.0
  C  C307  1  0.53321000  0.68796000  0.74284000  1.0
  C  C308  1  0.49584000  0.64642000  0.78041000  1.0
  C  C309  1  0.49957000  0.67670000  0.73400000  1.0
  C  C310  1  0.48124000  0.65545000  0.75315000  1.0
  C  C311  1  0.55048000  0.64664000  0.81581000  1.0
  C  C312  1  0.60987000  0.64549000  0.84302000  1.0
  C  C313  1  0.53691000  0.62523000  0.83775000  1.0
  C  C314  1  0.59811000  0.62318000  0.86521000  1.0
  C  C315  1  0.56077000  0.61375000  0.86246000  1.0
  C  C316  1  0.68874000  0.62265000  0.78312000  1.0
  C  C317  1  0.64244000  0.59489000  0.76278000  1.0
  C  C318  1  0.72973000  0.58164000  0.77738000  1.0
  C  C319  1  0.68233000  0.55294000  0.75736000  1.0
  C  C320  1  0.72628000  0.54691000  0.76446000  1.0
  C  C321  1  0.54097000  0.77972000  0.77770000  1.0
  C  C322  1  0.52339000  0.75774000  0.82281000  1.0
  C  C323  1  0.50875000  0.82575000  0.78242000  1.0
  C  C324  1  0.49247000  0.80352000  0.82881000  1.0
  C  C325  1  0.48493000  0.83747000  0.80812000  1.0
  C  C326  1  0.63354000  0.14484000  0.09997000  1.0
  C  C327  1  0.63445000  0.18677000  0.10254000  1.0
  C  C328  1  0.62207000  0.20815000  0.12838000  1.0
  C  C329  1  0.60900000  0.18868000  0.15156000  1.0
  C  C330  1  0.60696000  0.14775000  0.14868000  1.0
  C  C331  1  0.61868000  0.12652000  0.12311000  1.0
  C  C332  1  0.77316000  0.87214000  0.58584000  1.0
  C  C333  1  0.80846000  0.82570000  0.58481000  1.0
  C  C334  1  0.81477000  0.79615000  0.60803000  1.0
  C  C335  1  0.78757000  0.81191000  0.63261000  1.0
  C  C336  1  0.75242000  0.85784000  0.63365000  1.0
  C  C337  1  0.74511000  0.88737000  0.61040000  1.0
  C  C338  1  0.07220000  0.70636000  0.10518000  1.0
  C  C339  1  0.11896000  0.69848000  0.10758000  1.0
  C  C340  1  0.14203000  0.67971000  0.13256000  1.0
  C  C341  1  0.11903000  0.67037000  0.15564000  1.0
  C  C342  1  0.07231000  0.67925000  0.15339000  1.0
  C  C343  1  0.04955000  0.69659000  0.12838000  1.0
  C  C344  1  0.26430000  0.83374000  0.59601000  1.0
  C  C345  1  0.26791000  0.87380000  0.60048000  1.0
  C  C346  1  0.28607000  0.87737000  0.62559000  1.0
  C  C347  1  0.29904000  0.84289000  0.64664000  1.0
  C  C348  1  0.29334000  0.80417000  0.64242000  1.0
  C  C349  1  0.27701000  0.79955000  0.61726000  1.0
  C  C350  1  0.08609000  0.20933000  0.11297000  1.0
  C  C351  1  0.12828000  0.16718000  0.11238000  1.0
  C  C352  1  0.15589000  0.15169000  0.13602000  1.0
  C  C353  1  0.14223000  0.17731000  0.16020000  1.0
  C  C354  1  0.09990000  0.21880000  0.16079000  1.0
  C  C355  1  0.07230000  0.23441000  0.13740000  1.0
  C  C356  1  0.73079000  0.40187000  0.57995000  1.0
  C  C357  1  0.76316000  0.41860000  0.58329000  1.0
  C  C358  1  0.74913000  0.45820000  0.59851000  1.0
  C  C359  1  0.70404000  0.48117000  0.61093000  1.0
  C  C360  1  0.67291000  0.46313000  0.60896000  1.0
  C  C361  1  0.68619000  0.42409000  0.59355000  1.0
  C  C362  1  0.10411000  0.24130000  0.49824000  1.0
  C  C363  1  0.14622000  0.19921000  0.50033000  1.0
  C  C364  1  0.18763000  0.19576000  0.48685000  1.0
  C  C365  1  0.18758000  0.23257000  0.47097000  1.0
  C  C366  1  0.14525000  0.27333000  0.46794000  1.0
  C  C367  1  0.10413000  0.27737000  0.48132000  1.0
  C  C368  1  0.81714000  0.35652000  0.96952000  1.0
  C  C369  1  0.77713000  0.35048000  0.96669000  1.0
  C  C370  1  0.75064000  0.36829000  0.94265000  1.0
  C  C371  1  0.76323000  0.39191000  0.92162000  1.0
  C  C372  1  0.80294000  0.39783000  0.92468000  1.0
  C  C373  1  0.82936000  0.38039000  0.94844000  1.0
  C  C374  1  0.66477000  0.20164000  0.44847000  1.0
  C  C375  1  0.66271000  0.15992000  0.44808000  1.0
  C  C376  1  0.64822000  0.14903000  0.42382000  1.0
  C  C377  1  0.63727000  0.17793000  0.39993000  1.0
  C  C378  1  0.64018000  0.21881000  0.40040000  1.0
  C  C379  1  0.65315000  0.23062000  0.42451000  1.0
  C  C380  1  0.77639000  0.88674000  0.95210000  1.0
  C  C381  1  0.81679000  0.84302000  0.95280000  1.0
  C  C382  1  0.83077000  0.81623000  0.92904000  1.0
  C  C383  1  0.80569000  0.83220000  0.90451000  1.0
  C  C384  1  0.76651000  0.87622000  0.90366000  1.0
  C  C385  1  0.75183000  0.90269000  0.92732000  1.0
  C  C386  1  0.13764000  0.70819000  0.44447000  1.0
  C  C387  1  0.09279000  0.71173000  0.44133000  1.0
  C  C388  1  0.08543000  0.69141000  0.41859000  1.0
  C  C389  1  0.12165000  0.66797000  0.39886000  1.0
  C  C390  1  0.16586000  0.66539000  0.40179000  1.0
  C  C391  1  0.17368000  0.68502000  0.42450000  1.0
  C  C392  1  0.23940000  0.91321000  0.96356000  1.0
  C  C393  1  0.23632000  0.87237000  0.96097000  1.0
  C  C394  1  0.25218000  0.84870000  0.93589000  1.0
  C  C395  1  0.27069000  0.86492000  0.91352000  1.0
  C  C396  1  0.27249000  0.90613000  0.91618000  1.0
  C  C397  1  0.25762000  0.92937000  0.94102000  1.0
  C  C398  1  0.40256000  0.35496000  0.18134000  1.0
  C  C399  1  0.45306000  0.31824000  0.18173000  1.0
  C  C400  1  0.46427000  0.27256000  0.18864000  1.0
  C  C401  1  0.48934000  0.32901000  0.17425000  1.0
  C  C402  1  0.54731000  0.24897000  0.18047000  1.0
  C  C403  1  0.53606000  0.29462000  0.17347000  1.0
  C  C404  1  0.51104000  0.23820000  0.18804000  1.0
  C  C405  1  0.59764000  0.21175000  0.17915000  1.0
  C  C406  1  0.66666667  0.70646333  0.68265000  1.0
  C  C407  1  0.69826000  0.72807000  0.67639000  1.0
  C  C408  1  0.72103000  0.73595000  0.69776000  1.0
  C  C409  1  0.70758000  0.73784000  0.64871000  1.0
  C  C410  1  0.76056000  0.76454000  0.66392000  1.0
  C  C411  1  0.73879000  0.75539000  0.64249000  1.0
  C  C412  1  0.75163000  0.75421000  0.69157000  1.0
  C  C413  1  0.79751000  0.77978000  0.65781000  1.0
  C  C414  1  0.19342000  0.45856000  0.18882000  1.0
  C  C415  1  0.18423000  0.50749000  0.19032000  1.0
  C  C416  1  0.14624000  0.53932000  0.20641000  1.0
  C  C417  1  0.21036000  0.52302000  0.17278000  1.0
  C  C418  1  0.15955000  0.60137000  0.18646000  1.0
  C  C419  1  0.19806000  0.56952000  0.17081000  1.0
  C  C420  1  0.13435000  0.58574000  0.20470000  1.0
  C  C421  1  0.14421000  0.65188000  0.18261000  1.0
  C  C422  1  0.48628000  0.68381000  0.70390000  1.0
  C  C423  1  0.44332000  0.72933000  0.69827000  1.0
  C  C424  1  0.40088000  0.74174000  0.71355000  1.0
  C  C425  1  0.44397000  0.75777000  0.67564000  1.0
  C  C426  1  0.36046000  0.80886000  0.68309000  1.0
  C  C427  1  0.40290000  0.79711000  0.66808000  1.0
  C  C428  1  0.36008000  0.78138000  0.70626000  1.0
  C  C429  1  0.31549000  0.84979000  0.67398000  1.0
  C  C430  1  0.28140000  0.25987000  0.17936000  1.0
  C  C431  1  0.25561000  0.23207000  0.18236000  1.0
  C  C432  1  0.21673000  0.24503000  0.20100000  1.0
  C  C433  1  0.26851000  0.19449000  0.16547000  1.0
  C  C434  1  0.20311000  0.18421000  0.18508000  1.0
  C  C435  1  0.24237000  0.17088000  0.16674000  1.0
  C  C436  1  0.19086000  0.22113000  0.20244000  1.0
  C  C437  1  0.17326000  0.16051000  0.18501000  1.0
  C  C438  1  0.67782000  0.51444000  0.74517000  1.0
  C  C439  1  0.68053000  0.51798000  0.71391000  1.0
  C  C440  1  0.63947000  0.54272000  0.69893000  1.0
  C  C441  1  0.72406000  0.49586000  0.69941000  1.0
  C  C442  1  0.68538000  0.52272000  0.65537000  1.0
  C  C443  1  0.72646000  0.49825000  0.67037000  1.0
  C  C444  1  0.64186000  0.54503000  0.66991000  1.0
  C  C445  1  0.68827000  0.52675000  0.62410000  1.0
  C  C446  1  0.25653000  0.22310000  0.33793000  1.0
  C  C447  1  0.24577000  0.22877000  0.36877000  1.0
  C  C448  1  0.25843000  0.25619000  0.38368000  1.0
  C  C449  1  0.22739000  0.20262000  0.38339000  1.0
  C  C450  1  0.23466000  0.23100000  0.42726000  1.0
  C  C451  1  0.22227000  0.20339000  0.41235000  1.0
  C  C452  1  0.25274000  0.25740000  0.41263000  1.0
  C  C453  1  0.23326000  0.22893000  0.45867000  1.0
  C  C454  1  0.62570000  0.60850000  0.89134000  1.0
  C  C455  1  0.65448000  0.55700000  0.89283000  1.0
  C  C456  1  0.69355000  0.53479000  0.87462000  1.0
  C  C457  1  0.64212000  0.53069000  0.91202000  1.0
  C  C458  1  0.70733000  0.46067000  0.89464000  1.0
  C  C459  1  0.66841000  0.48291000  0.91295000  1.0
  C  C460  1  0.71964000  0.48702000  0.87544000  1.0
  C  C461  1  0.73528000  0.40907000  0.89556000  1.0
  C  C462  1  0.42279000  0.27133000  0.35605000  1.0
  C  C463  1  0.47483000  0.24355000  0.36061000  1.0
  C  C464  1  0.50679000  0.25409000  0.34516000  1.0
  C  C465  1  0.49174000  0.20746000  0.38064000  1.0
  C  C466  1  0.57191000  0.19232000  0.36939000  1.0
  C  C467  1  0.53987000  0.18215000  0.38505000  1.0
  C  C468  1  0.55494000  0.22859000  0.34945000  1.0
  C  C469  1  0.62390000  0.16428000  0.37387000  1.0
  C  C470  1  0.66729000  0.77228000  0.84801000  1.0
  C  C471  1  0.70995000  0.77645000  0.85495000  1.0
  C  C472  1  0.73178000  0.75857000  0.88037000  1.0
  C  C473  1  0.72608000  0.80115000  0.83696000  1.0
  C  C474  1  0.78353000  0.79230000  0.87039000  1.0
  C  C475  1  0.76259000  0.80899000  0.84460000  1.0
  C  C476  1  0.76835000  0.76635000  0.88800000  1.0
  C  C477  1  0.82151000  0.80251000  0.87929000  1.0
  C  C478  1  0.22005000  0.44996000  0.36156000  1.0
  C  C479  1  0.19264000  0.50142000  0.36471000  1.0
  C  C480  1  0.18484000  0.51995000  0.39119000  1.0
  C  C481  1  0.17285000  0.53118000  0.34168000  1.0
  C  C482  1  0.14120000  0.59726000  0.37125000  1.0
  C  C483  1  0.14783000  0.57853000  0.34491000  1.0
  C  C484  1  0.15881000  0.56728000  0.39453000  1.0
  C  C485  1  0.11163000  0.64867000  0.37386000  1.0
  C  C486  1  0.47229000  0.81644000  0.85794000  1.0
  C  C487  1  0.42554000  0.81694000  0.86262000  1.0
  C  C488  1  0.38730000  0.84572000  0.84621000  1.0
  C  C489  1  0.41823000  0.79276000  0.88561000  1.0
  C  C490  1  0.33482000  0.82887000  0.87697000  1.0
  C  C491  1  0.37324000  0.79873000  0.89275000  1.0
  C  C492  1  0.34248000  0.85119000  0.85314000  1.0
  C  C493  1  0.28557000  0.83936000  0.88655000  1.0
  C  C494  1  0.76544000  0.32270000  0.98795000  1.0
  C  C495  1  0.72140000  0.32998000  0.99418000  1.0
  C  C496  1  0.71049000  0.30296000  0.01622000  1.0
  C  C497  1  0.67029000  0.29765000  0.01423000  1.0
  C  C498  1  0.65842000  0.27328000  0.03493000  1.0
  C  C499  1  0.68649000  0.25399000  0.05823000  1.0
  C  C500  1  0.72615000  0.26011000  0.06046000  1.0
  C  C501  1  0.73816000  0.28421000  0.03972000  1.0
  C  C502  1  0.67419000  0.22965000  0.08136000  1.0
  C  C503  1  0.64755000  0.20908000  0.07850000  1.0
  C  C504  1  0.76316000  0.90364000  0.56091000  1.0
  C  C505  1  0.74712000  0.94911000  0.56282000  1.0
  C  C506  1  0.73549000  0.98209000  0.53857000  1.0
  C  C507  1  0.72880000  0.02638000  0.54285000  1.0
  C  C508  1  0.71655000  0.05910000  0.52101000  1.0
  C  C509  1  0.71029000  0.04833000  0.49430000  1.0
  C  C510  1  0.71733000  0.00400000  0.48994000  1.0
  C  C511  1  0.72941000  0.97131000  0.51178000  1.0
  C  C512  1  0.69758000  0.08171000  0.47029000  1.0
  C  C513  1  0.67566000  0.12760000  0.47274000  1.0
  C  C514  1  0.04815000  0.72111000  0.07820000  1.0
  C  C515  1  0.00140000  0.74840000  0.07689000  1.0
  C  C516  1  0.97491000  0.76297000  0.05079000  1.0
  C  C517  1  0.92801000  0.79768000  0.05223000  1.0
  C  C518  1  0.90074000  0.81180000  0.02872000  1.0
  C  C519  1  0.91964000  0.79114000  0.00309000  1.0
  C  C520  1  0.96671000  0.75693000  0.00146000  1.0
  C  C521  1  0.99405000  0.74264000  0.02505000  1.0
  C  C522  1  0.89174000  0.80585000  0.97757000  1.0
  C  C523  1  0.84456000  0.82498000  0.97827000  1.0
  C  C524  1  0.24855000  0.82627000  0.56923000  1.0
  C  C525  1  0.22144000  0.80564000  0.56841000  1.0
  C  C526  1  0.20968000  0.79127000  0.54260000  1.0
  C  C527  1  0.19258000  0.75943000  0.54528000  1.0
  C  C528  1  0.18210000  0.74353000  0.52190000  1.0
  C  C529  1  0.18783000  0.75966000  0.49508000  1.0
  C  C530  1  0.20489000  0.79155000  0.49231000  1.0
  C  C531  1  0.21548000  0.80747000  0.51577000  1.0
  C  C532  1  0.17776000  0.74289000  0.46964000  1.0
  C  C533  1  0.14763000  0.72554000  0.46972000  1.0
  C  C534  1  0.22581000  0.93817000  0.99008000  1.0
  C  C535  1  0.20567000  0.98422000  0.99047000  1.0
  C  C536  1  0.19323000  0.01092000  0.01618000  1.0
  C  C537  1  0.16212000  0.05809000  0.01421000  1.0
  C  C538  1  0.15058000  0.08528000  0.03739000  1.0
  C  C539  1  0.17049000  0.06594000  0.06316000  1.0
  C  C540  1  0.20115000  0.01866000  0.06528000  1.0
  C  C541  1  0.21275000  0.99140000  0.04203000  1.0
  C  C542  1  0.15869000  0.09375000  0.08835000  1.0
  C  C543  1  0.14363000  0.13923000  0.08715000  1.0
  C  C544  1  0.05957000  0.24845000  0.51309000  1.0
  C  C545  1  0.03062000  0.28885000  0.52469000  1.0
  C  C546  1  0.98353000  0.30167000  0.53789000  1.0
  C  C547  1  0.96129000  0.34269000  0.55227000  1.0
  C  C548  1  0.91550000  0.35906000  0.56307000  1.0
  C  C549  1  0.89046000  0.33492000  0.55957000  1.0
  C  C550  1  0.91311000  0.29292000  0.54618000  1.0
  C  C551  1  0.95915000  0.27651000  0.53519000  1.0
  C  C552  1  0.84100000  0.35298000  0.57007000  1.0
  C  C553  1  0.81114000  0.39829000  0.57020000  1.0
  C  C554  1  0.14509000  0.70998000  0.08491000  1.0
  C  C555  1  0.12591000  0.75087000  0.07110000  1.0
  C  C556  1  0.15149000  0.76569000  0.04973000  1.0
  C  C557  1  0.13042000  0.81202000  0.04096000  1.0
  C  C558  1  0.15280000  0.82797000  0.02105000  1.0
  C  C559  1  0.19724000  0.79782000  0.00946000  1.0
  C  C560  1  0.21788000  0.75129000  0.01777000  1.0
  C  C561  1  0.19538000  0.73528000  0.03761000  1.0
  C  C562  1  0.22229000  0.81301000  0.98794000  1.0
  C  C563  1  0.21248000  0.85707000  0.98333000  1.0
  C  C564  1  0.25234000  0.91231000  0.57935000  1.0
  C  C565  1  0.23001000  0.95655000  0.58667000  1.0
  C  C566  1  0.21456000  0.99667000  0.56674000  1.0
  C  C567  1  0.18494000  0.04058000  0.57678000  1.0
  C  C568  1  0.17169000  0.07973000  0.55947000  1.0
  C  C569  1  0.18778000  0.07583000  0.53147000  1.0
  C  C570  1  0.21684000  0.03187000  0.52134000  1.0
  C  C571  1  0.23022000  0.99277000  0.53867000  1.0
  C  C572  1  0.17853000  0.11621000  0.51263000  1.0
  C  C573  1  0.14866000  0.16026000  0.51851000  1.0
  C  C574  1  0.84492000  0.33991000  0.99506000  1.0
  C  C575  1  0.89204000  0.32145000  0.99431000  1.0
  C  C576  1  0.92100000  0.30382000  0.01933000  1.0
  C  C577  1  0.96680000  0.29831000  0.01754000  1.0
  C  C578  1  0.99579000  0.28112000  0.04028000  1.0
  C  C579  1  0.97974000  0.26838000  0.06530000  1.0
  C  C580  1  0.93385000  0.27416000  0.06719000  1.0
  C  C581  1  0.90483000  0.29133000  0.04443000  1.0
  C  C582  1  0.00944000  0.24991000  0.08996000  1.0
  C  C583  1  0.05670000  0.22781000  0.08811000  1.0
  C  C584  1  0.74006000  0.36669000  0.55914000  1.0
  C  C585  1  0.72046000  0.33867000  0.56134000  1.0
  C  C586  1  0.72180000  0.30933000  0.53867000  1.0
  C  C587  1  0.70730000  0.27597000  0.54491000  1.0
  C  C588  1  0.70285000  0.25112000  0.52384000  1.0
  C  C589  1  0.71249000  0.25945000  0.49586000  1.0
  C  C590  1  0.72870000  0.29153000  0.48976000  1.0
  C  C591  1  0.73303000  0.31641000  0.51078000  1.0
  C  C592  1  0.70464000  0.23718000  0.47223000  1.0
  C  C593  1  0.67738000  0.21648000  0.47380000  1.0
  C  C594  1  0.75918000  0.91529000  0.97726000  1.0
  C  C595  1  0.73736000  0.96150000  0.97605000  1.0
  C  C596  1  0.71991000  0.99001000  0.00114000  1.0
  C  C597  1  0.71168000  0.03563000  0.99901000  1.0
  C  C598  1  0.69566000  0.06344000  0.02215000  1.0
  C  C599  1  0.68718000  0.04613000  0.04795000  1.0
  C  C600  1  0.69490000  0.00075000  0.05000000  1.0
  C  C601  1  0.71056000  0.97312000  0.02688000  1.0
  C  C602  1  0.67197000  0.07331000  0.07349000  1.0
  C  C603  1  0.64870000  0.11947000  0.07356000  1.0
  C  C604  1  0.05281000  0.73969000  0.46063000  1.0
  C  C605  1  0.01887000  0.72853000  0.46861000  1.0
  C  C606  1  0.97924000  0.75537000  0.48842000  1.0
  C  C607  1  0.94020000  0.74749000  0.48994000  1.0
  C  C608  1  0.90294000  0.77036000  0.50897000  1.0
  C  C609  1  0.90414000  0.80141000  0.52721000  1.0
  C  C610  1  0.94262000  0.81007000  0.52534000  1.0
  C  C611  1  0.97998000  0.78709000  0.50639000  1.0
  C  C612  1  0.86653000  0.82460000  0.54876000  1.0
  C  C613  1  0.84028000  0.80609000  0.56025000  1.0
  N  N614  1  0.31316000  0.29165000  0.24597000  1.0
  N  N615  1  0.33669000  0.36109000  0.24970000  1.0
  N  N616  1  0.35345000  0.29620000  0.29107000  1.0
  N  N617  1  0.25831000  0.31924000  0.29276000  1.0
  N  N618  1  0.28662000  0.38770000  0.29683000  1.0
  N  N619  1  0.24144000  0.38252000  0.25280000  1.0
  N  N620  1  0.60311000  0.71864000  0.75261000  1.0
  N  N621  1  0.54802000  0.67797000  0.76956000  1.0
  N  N622  1  0.54741000  0.74694000  0.79774000  1.0
  N  N623  1  0.64438000  0.69659000  0.80260000  1.0
  N  N624  1  0.58561000  0.65717000  0.81910000  1.0
  N  N625  1  0.64642000  0.62867000  0.77536000  1.0
  O  O626  1  0.59309000  0.12835000  0.17068000  1.0
  O  O627  1  0.72445000  0.87397000  0.65719000  1.0
  O  O628  1  0.04840000  0.67121000  0.17557000  1.0
  O  O629  1  0.30298000  0.77071000  0.66283000  1.0
  O  O630  1  0.08508000  0.24441000  0.18418000  1.0
  O  O631  1  0.62842000  0.48490000  0.62074000  1.0
  O  O632  1  0.14401000  0.30997000  0.45258000  1.0
  O  O633  1  0.81668000  0.42006000  0.90435000  1.0
  O  O634  1  0.62959000  0.24795000  0.37748000  1.0
  O  O635  1  0.74172000  0.89336000  0.87989000  1.0
  O  O636  1  0.20148000  0.64428000  0.38231000  1.0
  O  O637  1  0.28794000  0.92467000  0.89448000  1.0
