# generated using pymatgen
data_Dy5H120C114N24(O7F6)4
_symmetry_space_group_name_H-M   'P 1'
_cell_length_a   28.41025000
_cell_length_b   28.48297627
_cell_length_c   52.18120000
_cell_angle_alpha   90.38411814
_cell_angle_beta   90.38400000
_cell_angle_gamma   66.73442773
_symmetry_Int_Tables_number   1
_chemical_formula_structural   Dy5H120C114N24(O7F6)4
_chemical_formula_sum   'Dy10 H240 C228 N48 O56 F48'
_cell_volume   38790.60898779
_cell_formula_units_Z   2
loop_
 _symmetry_equiv_pos_site_id
 _symmetry_equiv_pos_as_xyz
  1  'x, y, z'
loop_
 _atom_site_type_symbol
 _atom_site_label
 _atom_site_symmetry_multiplicity
 _atom_site_fract_x
 _atom_site_fract_y
 _atom_site_fract_z
 _atom_site_occupancy
  C  C0  1  0.19320000  0.06506000  0.96871000  1.0
  C  C1  1  0.16314000  0.06960000  0.99340000  1.0
  C  C2  1  0.79785000  0.03569000  0.40927000  1.0
  C  C3  1  0.76725000  0.09615000  0.03965000  1.0
  C  C4  1  0.24671000  0.04227000  0.53453000  1.0
  C  C5  1  0.26038000  0.07836000  0.51729000  1.0
  C  C6  1  0.16861000  0.04673000  0.03891000  1.0
  C  C7  1  0.74388000  0.06756000  0.99866000  1.0
  C  C8  1  0.83084000  0.06188000  0.00518000  1.0
  C  C9  1  0.83781000  0.06281000  0.97619000  1.0
  C  C10  1  0.75109000  0.06751000  0.96957000  1.0
  C  C11  1  0.23516000  0.04312000  0.47978000  1.0
  C  C12  1  0.23936000  0.12712000  0.47762000  1.0
  C  C13  1  0.10897000  0.18343000  0.44348000  1.0
  C  C14  1  0.19809000  0.15185000  0.45766000  1.0
  C  C15  1  0.21066000  0.17040000  0.43500000  1.0
  C  C16  1  0.14688000  0.15928000  0.46192000  1.0
  C  C17  1  0.77034000  0.09287000  0.40746000  1.0
  C  C18  1  0.72214000  0.11426000  0.39549000  1.0
  C  C19  1  0.79326000  0.12500000  0.41690000  1.0
  C  C20  1  0.69683000  0.16745000  0.39280000  1.0
  C  C21  1  0.74119000  0.15219000  0.04620000  1.0
  C  C22  1  0.69922000  0.16994000  0.06296000  1.0
  C  C23  1  0.75998000  0.18698000  0.03617000  1.0
  C  C24  1  0.14254000  0.10116000  0.04856000  1.0
  C  C25  1  0.16822000  0.12228000  0.06512000  1.0
  C  C26  1  0.09216000  0.13116000  0.04090000  1.0
  C  C27  1  0.14419000  0.17325000  0.07358000  1.0
  C  C28  1  0.56934000  0.18802000  0.36411000  1.0
  C  C29  1  0.76800000  0.17824000  0.41492000  1.0
  C  C30  1  0.06894000  0.18292000  0.04782000  1.0
  C  C31  1  0.28463000  0.28407000  0.17895000  1.0
  C  C32  1  0.25393000  0.31845000  0.29287000  1.0
  C  C33  1  0.46299000  0.30169000  0.17931000  1.0
  C  C34  1  0.46462000  0.30088000  0.29230000  1.0
  C  C35  1  0.86564000  0.28062000  0.92078000  1.0
  C  C36  1  0.84091000  0.32431000  0.90582000  1.0
  C  C37  1  0.94140000  0.30068000  0.92330000  1.0
  C  C38  1  0.91674000  0.34364000  0.90784000  1.0
  C  C39  1  0.91663000  0.26777000  0.92836000  1.0
  C  C40  1  0.86676000  0.35524000  0.89867000  1.0
  C  C41  1  0.22183000  0.26421000  0.35588000  1.0
  C  C42  1  0.12200000  0.20250000  0.42105000  1.0
  C  C43  1  0.17537000  0.29097000  0.36850000  1.0
  C  C44  1  0.24805000  0.21241000  0.36192000  1.0
  C  C45  1  0.17289000  0.19619000  0.41671000  1.0
  C  C46  1  0.18690000  0.21834000  0.39381000  1.0
  C  C47  1  0.56144000  0.22786000  0.34675000  1.0
  C  C48  1  0.71966000  0.19920000  0.40306000  1.0
  C  C49  1  0.59917000  0.24827000  0.34607000  1.0
  C  C50  1  0.64865000  0.18959000  0.37759000  1.0
  C  C51  1  0.54894000  0.28102000  0.12009000  1.0
  C  C52  1  0.73554000  0.23944000  0.04152000  1.0
  C  C53  1  0.69370000  0.25656000  0.05823000  1.0
  C  C54  1  0.58862000  0.29836000  0.12104000  1.0
  C  C55  1  0.55373000  0.24159000  0.10275000  1.0
  C  C56  1  0.67570000  0.22210000  0.06934000  1.0
  C  C57  1  0.63244000  0.24110000  0.08768000  1.0
  C  C58  1  0.88218000  0.34456000  0.52885000  1.0
  C  C59  1  0.81433000  0.31319000  0.53488000  1.0
  C  C60  1  0.79654000  0.34600000  0.55609000  1.0
  C  C61  1  0.85738000  0.31254000  0.52142000  1.0
  C  C62  1  0.21750000  0.24292000  0.12323000  1.0
  C  C63  1  0.09495000  0.20361000  0.06433000  1.0
  C  C64  1  0.16571000  0.25189000  0.12616000  1.0
  C  C65  1  0.24531000  0.20705000  0.10468000  1.0
  C  C66  1  0.17049000  0.19537000  0.09174000  1.0
  C  C67  1  0.22545000  0.29735000  0.31091000  1.0
  C  C68  1  0.24590000  0.29154000  0.33877000  1.0
  C  C69  1  0.51148000  0.28570000  0.30917000  1.0
  C  C70  1  0.51317000  0.24675000  0.33001000  1.0
  C  C71  1  0.51034000  0.27872000  0.16316000  1.0
  C  C72  1  0.50194000  0.30492000  0.13679000  1.0
  C  C73  1  0.26437000  0.25047000  0.16383000  1.0
  C  C74  1  0.24114000  0.27454000  0.13775000  1.0
  C  C75  1  0.75502000  0.27744000  0.03072000  1.0
  C  C76  1  0.81479000  0.28699000  0.00019000  1.0
  C  C77  1  0.74465000  0.26657000  0.98469000  1.0
  C  C78  1  0.83714000  0.24892000  0.92982000  1.0
  C  C79  1  0.77399000  0.24485000  0.95990000  1.0
  C  C80  1  0.84444000  0.26558000  0.97558000  1.0
  C  C81  1  0.05486000  0.18884000  0.44813000  1.0
  C  C82  1  0.00308000  0.21538000  0.48724000  1.0
  C  C83  1  0.99785000  0.27847000  0.45489000  1.0
  C  C84  1  0.92648000  0.34776000  0.51398000  1.0
  C  C85  1  0.97679000  0.32091000  0.47501000  1.0
  C  C86  1  0.98284000  0.25796000  0.50735000  1.0
  C  C87  1  0.79383000  0.21261000  0.42398000  1.0
  C  C88  1  0.78495000  0.27933000  0.45512000  1.0
  C  C89  1  0.80432000  0.19238000  0.46968000  1.0
  C  C90  1  0.78776000  0.27808000  0.52767000  1.0
  C  C91  1  0.78827000  0.21293000  0.49684000  1.0
  C  C92  1  0.76837000  0.29905000  0.48231000  1.0
  C  C93  1  0.01687000  0.21605000  0.03700000  1.0
  C  C94  1  0.96840000  0.27796000  0.00517000  1.0
  C  C95  1  0.05171000  0.21113000  0.99360000  1.0
  C  C96  1  0.99329000  0.29077000  0.93498000  1.0
  C  C97  1  0.05087000  0.24021000  0.96892000  1.0
  C  C98  1  0.96984000  0.30618000  0.98052000  1.0
  C  C99  1  0.86336000  0.37736000  0.54991000  1.0
  C  C100  1  0.82066000  0.37844000  0.56369000  1.0
  C  C101  1  0.84153000  0.39999000  0.88185000  1.0
  C  C102  1  0.80030000  0.41532000  0.58523000  1.0
  C  C103  1  0.84586000  0.45022000  0.84662000  1.0
  C  C104  1  0.81540000  0.46436000  0.61876000  1.0
  C  C105  1  0.29969000  0.50123000  0.28796000  1.0
  C  C106  1  0.24854000  0.48012000  0.17633000  1.0
  C  C107  1  0.79514000  0.48438000  0.85071000  1.0
  C  C108  1  0.76844000  0.47384000  0.87084000  1.0
  C  C109  1  0.76272000  0.49290000  0.62143000  1.0
  C  C110  1  0.72961000  0.47893000  0.60609000  1.0
  C  C111  1  0.73506000  0.52380000  0.81366000  1.0
  C  C112  1  0.77021000  0.53179000  0.83445000  1.0
  C  C113  1  0.74372000  0.52694000  0.66706000  1.0
  C  C114  1  0.21112000  0.52334000  0.16049000  1.0
  C  C115  1  0.22957000  0.51945000  0.13221000  1.0
  C  C116  1  0.28362000  0.54768000  0.30509000  1.0
  C  C117  1  0.74315000  0.54023000  0.63834000  1.0
  C  C118  1  0.81414000  0.03618000  0.93482000  1.0
  C  C119  1  0.71478000  0.56904000  0.79596000  1.0
  C  C120  1  0.72337000  0.57431000  0.68366000  1.0
  C  C121  1  0.20439000  0.56613000  0.11532000  1.0
  C  C122  1  0.22913000  0.56897000  0.09258000  1.0
  C  C123  1  0.22556000  0.56744000  0.31108000  1.0
  C  C124  1  0.20735000  0.60363000  0.33400000  1.0
  C  C125  1  0.15976000  0.61196000  0.34502000  1.0
  C  C126  1  0.15693000  0.60609000  0.12038000  1.0
  C  C127  1  0.79456000  0.02014000  0.45514000  1.0
  C  C128  1  0.22936000  0.99002000  0.00856000  1.0
  C  C129  1  0.78044000  0.96308000  0.42397000  1.0
  C  C130  1  0.71504000  0.78026000  0.68460000  1.0
  C  C131  1  0.73099000  0.76357000  0.80081000  1.0
  C  C132  1  0.54750000  0.75506000  0.67991000  1.0
  C  C133  1  0.52894000  0.75884000  0.79293000  1.0
  C  C134  1  0.44221000  0.81107000  0.85265000  1.0
  C  C135  1  0.23793000  0.87581000  0.92398000  1.0
  C  C136  1  0.28162000  0.85132000  0.90874000  1.0
  C  C137  1  0.42847000  0.78085000  0.86974000  1.0
  C  C138  1  0.25846000  0.95108000  0.92677000  1.0
  C  C139  1  0.30185000  0.92633000  0.91163000  1.0
  C  C140  1  0.41037000  0.86305000  0.85141000  1.0
  C  C141  1  0.22518000  0.92666000  0.93153000  1.0
  C  C142  1  0.31296000  0.87706000  0.90175000  1.0
  C  C143  1  0.35704000  0.85338000  0.88403000  1.0
  C  C144  1  0.09015000  0.75581000  0.42800000  1.0
  C  C145  1  0.10624000  0.72916000  0.40478000  1.0
  C  C146  1  0.17489000  0.70751000  0.44622000  1.0
  C  C147  1  0.19070000  0.68208000  0.42274000  1.0
  C  C148  1  0.23557000  0.62947000  0.34514000  1.0
  C  C149  1  0.12499000  0.74489000  0.44859000  1.0
  C  C150  1  0.15651000  0.69251000  0.40196000  1.0
  C  C151  1  0.17302000  0.66376000  0.37761000  1.0
  C  C152  1  0.75075000  0.84303000  0.85725000  1.0
  C  C153  1  0.83763000  0.98059000  0.92724000  1.0
  C  C154  1  0.80972000  0.95852000  0.91281000  1.0
  C  C155  1  0.75025000  0.89163000  0.85269000  1.0
  C  C156  1  0.91026000  0.89820000  0.92838000  1.0
  C  C157  1  0.88179000  0.87643000  0.91413000  1.0
  C  C158  1  0.77905000  0.81601000  0.87838000  1.0
  C  C159  1  0.88819000  0.95045000  0.93441000  1.0
  C  C160  1  0.83178000  0.90662000  0.90581000  1.0
  C  C161  1  0.80322000  0.88448000  0.88906000  1.0
  C  C162  1  0.73317000  0.84519000  0.62297000  1.0
  C  C163  1  0.78810000  0.90632000  0.51239000  1.0
  C  C164  1  0.76841000  0.90189000  0.53642000  1.0
  C  C165  1  0.71858000  0.89540000  0.61411000  1.0
  C  C166  1  0.87510000  0.86180000  0.52911000  1.0
  C  C167  1  0.85446000  0.85730000  0.55291000  1.0
  C  C168  1  0.77306000  0.80662000  0.60999000  1.0
  C  C169  1  0.84150500  0.88609500  0.50886000  1.0
  C  C170  1  0.80130000  0.87684000  0.55663000  1.0
  C  C171  1  0.77989000  0.86677000  0.58076000  1.0
  C  C172  1  0.47316000  0.78804000  0.61539000  1.0
  C  C173  1  0.28660000  0.90734000  0.53585000  1.0
  C  C174  1  0.32052000  0.88994000  0.55673000  1.0
  C  C175  1  0.45252000  0.83956000  0.60814000  1.0
  C  C176  1  0.33517000  0.82845000  0.51276000  1.0
  C  C177  1  0.36824000  0.81108000  0.53390000  1.0
  C  C178  1  0.45280000  0.75570000  0.60371000  1.0
  C  C179  1  0.29436000  0.87640000  0.51399000  1.0
  C  C180  1  0.36139000  0.84169000  0.55595000  1.0
  C  C181  1  0.39807000  0.82369000  0.57774000  1.0
  C  C182  1  0.16323000  0.75967000  0.04213000  1.0
  C  C183  1  0.17986000  0.71574000  0.05739000  1.0
  C  C184  1  0.07597000  0.76345000  0.04400000  1.0
  C  C185  1  0.09327000  0.71959000  0.05947000  1.0
  C  C186  1  0.11101000  0.78401000  0.03597000  1.0
  C  C187  1  0.14519000  0.69561000  0.06632000  1.0
  C  C188  1  0.16400000  0.64950000  0.08278000  1.0
  C  C189  1  0.48084000  0.77858000  0.80898000  1.0
  C  C190  1  0.49123000  0.78931000  0.83713000  1.0
  C  C191  1  0.75866000  0.78370000  0.81996000  1.0
  C  C192  1  0.72213000  0.82013000  0.83992000  1.0
  C  C193  1  0.73480000  0.81274000  0.66879000  1.0
  C  C194  1  0.70339000  0.83123000  0.64356000  1.0
  C  C195  1  0.50209000  0.77619000  0.66197000  1.0
  C  C196  1  0.51868000  0.76758000  0.63356000  1.0
  C  C197  1  0.24740000  0.00380000  0.93740000  1.0
  C  C198  1  0.25873000  0.98597000  0.98353000  1.0
  C  C199  1  0.21068000  0.69366000  0.46904000  1.0
  C  C200  1  0.29019000  0.69331000  0.48632000  1.0
  C  C201  1  0.22542000  0.77260000  0.47016500  1.0
  C  C202  1  0.34357000  0.79645000  0.48877000  1.0
  C  C203  1  0.26600000  0.79508000  0.46820000  1.0
  C  C204  1  0.33045000  0.71641000  0.48464000  1.0
  C  C205  1  0.01974000  0.78924000  0.03712000  1.0
  C  C206  1  0.95953000  0.85163000  0.00829000  1.0
  C  C207  1  0.02444000  0.77478000  0.99071000  1.0
  C  C208  1  0.96511000  0.86653000  0.93600000  1.0
  C  C209  1  0.02001000  0.80115000  0.96480000  1.0
  C  C210  1  0.95436000  0.87854000  0.98250000  1.0
  C  C211  1  0.75154000  0.92782000  0.49019000  1.0
  C  C212  1  0.76788000  0.00138000  0.47566000  1.0
  C  C213  1  0.75340000  0.94476000  0.44443000  1.0
  C  C214  1  0.20368000  0.84878000  0.93156000  1.0
  C  C215  1  0.19088000  0.79014000  0.96159000  1.0
  C  C216  1  0.20490000  0.86364000  0.97803000  1.0
  C  C217  1  0.20112000  0.78204000  0.03420000  1.0
  C  C218  1  0.21784000  0.83830000  0.00433000  1.0
  C  C219  1  0.20423000  0.76503000  0.98804000  1.0
  C  C220  1  0.03666000  0.79728000  0.42997000  1.0
  C  C221  1  0.00166000  0.76862000  0.46659000  1.0
  C  C222  1  0.97849000  0.85923000  0.46003000  1.0
  C  C223  1  0.93278000  0.84064000  0.52611000  1.0
  C  C224  1  0.96507000  0.86951000  0.48845000  1.0
  C  C225  1  0.98822000  0.77842000  0.49504000  1.0
  C  C226  1  0.24172000  0.95830000  0.53689000  1.0
  C  C227  1  0.22023000  0.00789000  0.49690000  1.0
  Dy  Dy228  1  0.41369000  0.32109000  0.23589000  1.0
  Dy  Dy229  1  0.34501000  0.36473000  0.16892000  1.0
  Dy  Dy230  1  0.34281000  0.37071000  0.28349000  1.0
  Dy  Dy231  1  0.28577000  0.33751000  0.23636000  1.0
  Dy  Dy232  1  0.31418000  0.44526000  0.23381000  1.0
  Dy  Dy233  1  0.58745000  0.73833000  0.73858000  1.0
  Dy  Dy234  1  0.66552000  0.69220000  0.67514000  1.0
  Dy  Dy235  1  0.70153000  0.62101000  0.74135000  1.0
  Dy  Dy236  1  0.65331000  0.69899000  0.78877000  1.0
  Dy  Dy237  1  0.71010000  0.73650000  0.74345000  1.0
  F  F238  1  0.22960000  0.25018000  0.30165000  1.0
  F  F239  1  0.29864000  0.26450000  0.33859000  1.0
  F  F240  1  0.17415000  0.32981000  0.31055000  1.0
  F  F241  1  0.23561000  0.33973000  0.34889000  1.0
  F  F242  1  0.51046000  0.32988000  0.32089000  1.0
  F  F243  1  0.47127000  0.26861000  0.34597000  1.0
  F  F244  1  0.55488000  0.26520000  0.29401000  1.0
  F  F245  1  0.50908000  0.20478000  0.31820000  1.0
  F  F246  1  0.52114000  0.22724000  0.15976000  1.0
  F  F247  1  0.46028000  0.30066000  0.12462000  1.0
  F  F248  1  0.55134000  0.28374000  0.17563000  1.0
  F  F249  1  0.49117000  0.35643000  0.14033000  1.0
  F  F250  1  0.22760000  0.24232000  0.17828000  1.0
  F  F251  1  0.20398000  0.32310000  0.14211000  1.0
  F  F252  1  0.30442000  0.20376000  0.15965000  1.0
  F  F253  1  0.27916000  0.27940000  0.12279000  1.0
  F  F254  1  0.76209000  0.47985000  0.79970000  1.0
  F  F255  1  0.71441000  0.49859000  0.67081000  1.0
  F  F256  1  0.79338000  0.49794000  0.67483000  1.0
  F  F257  1  0.22226000  0.47916000  0.12034000  1.0
  F  F258  1  0.69390000  0.51826000  0.82526000  1.0
  F  F259  1  0.31177000  0.53401000  0.32763000  1.0
  F  F260  1  0.21290000  0.52586000  0.31555000  1.0
  F  F261  1  0.28188000  0.50794000  0.13240000  1.0
  F  F262  1  0.16360000  0.52062000  0.16135000  1.0
  F  F263  1  0.80743000  0.54425000  0.82273000  1.0
  F  F264  1  0.74158000  0.57218000  0.85024000  1.0
  F  F265  1  0.69357000  0.57177000  0.63130000  1.0
  F  F266  1  0.77422000  0.56682000  0.63458000  1.0
  F  F267  1  0.20726000  0.56934000  0.17121000  1.0
  F  F268  1  0.29412000  0.58572000  0.29311000  1.0
  F  F269  1  0.19816000  0.59248000  0.28972000  1.0
  F  F270  1  0.45984000  0.74224000  0.80854000  1.0
  F  F271  1  0.52477000  0.74441000  0.84834000  1.0
  F  F272  1  0.44595000  0.82275000  0.79786000  1.0
  F  F273  1  0.51439000  0.82401000  0.83732000  1.0
  F  F274  1  0.78424000  0.80898000  0.80708000  1.0
  F  F275  1  0.68261000  0.85851000  0.82724000  1.0
  F  F276  1  0.79463000  0.74227000  0.83253000  1.0
  F  F277  1  0.70104000  0.79342000  0.85486000  1.0
  F  F278  1  0.78565000  0.78319000  0.66335000  1.0
  F  F279  1  0.68984000  0.79324000  0.63334000  1.0
  F  F280  1  0.73299000  0.85479000  0.68290000  1.0
  F  F281  1  0.65839000  0.87255000  0.64931000  1.0
  F  F282  1  0.47738000  0.82806000  0.66673000  1.0
  F  F283  1  0.55107000  0.79219000  0.62846000  1.0
  F  F284  1  0.46835000  0.75317000  0.66698000  1.0
  F  F285  1  0.54573000  0.71569000  0.62937000  1.0
  H  H286  1  0.16522000  0.08366000  0.95314000  1.0
  H  H287  1  0.21924000  0.08558000  0.97083000  1.0
  H  H288  1  0.78747000  0.06063000  0.45947000  1.0
  H  H289  1  0.82757000  0.10293000  0.96986000  1.0
  H  H290  1  0.73643000  0.10765000  0.96258000  1.0
  H  H291  1  0.74446000  0.07470000  0.04657000  1.0
  H  H292  1  0.70288000  0.09062000  0.00304000  1.0
  H  H293  1  0.85444000  0.08042000  0.01449000  1.0
  H  H294  1  0.27765000  0.10855000  0.46846000  1.0
  H  H295  1  0.30183000  0.06037000  0.51231000  1.0
  H  H296  1  0.20681000  0.06231000  0.54167000  1.0
  H  H297  1  0.13376000  0.05332000  0.99029000  1.0
  H  H298  1  0.87890000  0.04050000  0.97183000  1.0
  H  H299  1  0.80383000  0.08081000  0.05068000  1.0
  H  H300  1  0.21017000  0.05199000  0.46250000  1.0
  H  H301  1  0.68572000  0.14298000  0.07146000  1.0
  H  H302  1  0.24093000  0.15891000  0.48962000  1.0
  H  H303  1  0.24986000  0.16618000  0.43200000  1.0
  H  H304  1  0.25194000  0.15248000  0.38525000  1.0
  H  H305  1  0.28365000  0.18963000  0.35244000  1.0
  H  H306  1  0.13621000  0.14615000  0.47953000  1.0
  H  H307  1  0.70547000  0.08917000  0.38742000  1.0
  H  H308  1  0.61656000  0.14010000  0.39172000  1.0
  H  H309  1  0.54123500  0.17130500  0.36571000  1.0
  H  H310  1  0.83088000  0.10858000  0.42572000  1.0
  H  H311  1  0.59639000  0.19439000  0.07371000  1.0
  H  H312  1  0.79352000  0.17310000  0.02404000  1.0
  H  H313  1  0.20647000  0.09867000  0.07171000  1.0
  H  H314  1  0.24308000  0.15946000  0.07501000  1.0
  H  H315  1  0.07196000  0.11484000  0.02838000  1.0
  H  H316  1  0.05657000  0.15143000  0.45530000  1.0
  H  H317  1  0.02945000  0.18015000  0.49704000  1.0
  H  H318  1  0.14355000  0.11087000  0.99737000  1.0
  H  H319  1  0.81131000  0.18279000  0.51058000  1.0
  H  H320  1  0.84661000  0.17975000  0.46792000  1.0
  H  H321  1  0.79463000  0.15851000  0.46703000  1.0
  H  H322  1  0.03802000  0.18026000  0.98931000  1.0
  H  H323  1  0.25358000  0.11394000  0.52835000  1.0
  H  H324  1  0.09229000  0.19379000  0.99982000  1.0
  H  H325  1  0.35880000  0.30194000  0.20523000  1.0
  H  H326  1  0.36831000  0.27173000  0.26739000  1.0
  H  H327  1  0.80187000  0.33369000  0.89948000  1.0
  H  H328  1  0.93584000  0.23366000  0.93967000  1.0
  H  H329  1  0.09265000  0.22199000  0.40699000  1.0
  H  H330  1  0.12527000  0.28951000  0.39688000  1.0
  H  H331  1  0.15350000  0.33098000  0.36441000  1.0
  H  H332  1  0.70038000  0.24032000  0.40143000  1.0
  H  H333  1  0.66921000  0.24417000  0.35943000  1.0
  H  H334  1  0.59617000  0.27909000  0.33341000  1.0
  H  H335  1  0.67516000  0.29700000  0.06255000  1.0
  H  H336  1  0.65824000  0.29208000  0.10639000  1.0
  H  H337  1  0.58711000  0.32817000  0.13440000  1.0
  H  H338  1  0.52434000  0.22644000  0.10147000  1.0
  H  H339  1  0.76402000  0.34588000  0.56677000  1.0
  H  H340  1  0.87125000  0.28743000  0.50506000  1.0
  H  H341  1  0.07693000  0.24359000  0.06966000  1.0
  H  H342  1  0.10451000  0.23621000  0.11318000  1.0
  H  H343  1  0.14270000  0.27874000  0.14045000  1.0
  H  H344  1  0.28558000  0.19844000  0.10177000  1.0
  H  H345  1  0.80940000  0.24932000  0.91457000  1.0
  H  H346  1  0.86415000  0.20847000  0.93269000  1.0
  H  H347  1  0.74552000  0.25150000  0.94416000  1.0
  H  H348  1  0.79561000  0.20283000  0.96200000  1.0
  H  H349  1  0.87103000  0.22503000  0.97857000  1.0
  H  H350  1  0.86726000  0.28858000  0.97193000  1.0
  H  H351  1  0.78228000  0.28102000  0.04525000  1.0
  H  H352  1  0.72354000  0.31606000  0.02898000  1.0
  H  H353  1  0.84318000  0.28100000  0.01593000  1.0
  H  H354  1  0.79211000  0.32885000  0.99816000  1.0
  H  H355  1  0.71942000  0.30762000  0.98195000  1.0
  H  H356  1  0.71998000  0.24548000  0.98881000  1.0
  H  H357  1  0.95636000  0.34946000  0.52746000  1.0
  H  H358  1  0.95048000  0.35600000  0.46510000  1.0
  H  H359  1  0.00893000  0.32891000  0.48355000  1.0
  H  H360  1  0.01573000  0.26271000  0.51705000  1.0
  H  H361  1  0.96159000  0.24613000  0.52202000  1.0
  H  H362  1  0.03258000  0.19624000  0.42988000  1.0
  H  H363  1  0.97066000  0.20778000  0.47879000  1.0
  H  H364  1  0.96531000  0.27409000  0.44462000  1.0
  H  H365  1  0.02040000  0.28998000  0.44075000  1.0
  H  H366  1  0.80258000  0.24538000  0.54119000  1.0
  H  H367  1  0.74579000  0.29714000  0.53124000  1.0
  H  H368  1  0.74705000  0.22077000  0.49978000  1.0
  H  H369  1  0.72650000  0.30928000  0.48450000  1.0
  H  H370  1  0.77563000  0.33431000  0.48521000  1.0
  H  H371  1  0.78315000  0.24521000  0.41038000  1.0
  H  H372  1  0.83632000  0.19230000  0.42312000  1.0
  H  H373  1  0.76133000  0.30941000  0.44150000  1.0
  H  H374  1  0.82591000  0.27301000  0.45247000  1.0
  H  H375  1  0.02214000  0.26348000  0.92192000  1.0
  H  H376  1  0.00105000  0.32615000  0.93564000  1.0
  H  H377  1  0.07224000  0.21174000  0.95406000  1.0
  H  H378  1  0.07065000  0.26665000  0.97203000  1.0
  H  H379  1  0.98864000  0.33328000  0.98424000  1.0
  H  H380  1  0.92978000  0.32882000  0.97430000  1.0
  H  H381  1  0.99498000  0.24346000  0.05219000  1.0
  H  H382  1  0.99539000  0.19187000  0.03202000  1.0
  H  H383  1  0.94842000  0.30690000  0.02010000  1.0
  H  H384  1  0.94558000  0.25454000  0.00148000  1.0
  H  H385  1  0.93605000  0.36861000  0.90339000  1.0
  H  H386  1  0.84065000  0.05427000  0.92884000  1.0
  H  H387  1  0.77792000  0.05634000  0.92391000  1.0
  H  H388  1  0.38067000  0.39241000  0.20830000  1.0
  H  H389  1  0.24312000  0.42798000  0.26678000  1.0
  H  H390  1  0.40737000  0.41103000  0.26268000  1.0
  H  H391  1  0.27515000  0.39975000  0.20364000  1.0
  H  H392  1  0.77106000  0.42596000  0.90099000  1.0
  H  H393  1  0.90588000  0.38446000  0.85856000  1.0
  H  H394  1  0.88133500  0.40334500  0.55501000  1.0
  H  H395  1  0.87268000  0.40626000  0.59948000  1.0
  H  H396  1  0.72287000  0.43349000  0.57641000  1.0
  H  H397  1  0.91089000  0.38549000  0.50421000  1.0
  H  H398  1  0.86799000  0.45619000  0.83112000  1.0
  H  H399  1  0.84261000  0.47341000  0.63025000  1.0
  H  H400  1  0.72914000  0.49908000  0.87476000  1.0
  H  H401  1  0.68850000  0.49948000  0.60748000  1.0
  H  H402  1  0.26497000  0.53835000  0.08723000  1.0
  H  H403  1  0.72812000  0.04808000  0.96044000  1.0
  H  H404  1  0.13577000  0.59405000  0.33688000  1.0
  H  H405  1  0.22892000  0.61070000  0.06034000  1.0
  H  H406  1  0.13516000  0.60548000  0.13718000  1.0
  H  H407  1  0.27321000  0.03225000  0.55128000  1.0
  H  H408  1  0.17882000  0.02688000  0.50179000  1.0
  H  H409  1  0.13970000  0.02988000  0.03566000  1.0
  H  H410  1  0.83961000  0.02419000  0.41294000  1.0
  H  H411  1  0.19546000  0.02380000  0.05407000  1.0
  H  H412  1  0.79421000  0.01949000  0.39023000  1.0
  H  H413  1  0.20504000  0.96762000  0.00655000  1.0
  H  H414  1  0.76280000  0.96112000  0.40512000  1.0
  H  H415  1  0.82181000  0.93713000  0.42334000  1.0
  H  H416  1  0.83663000  0.99717000  0.45614000  1.0
  H  H417  1  0.20670000  0.95290000  0.53047000  1.0
  H  H418  1  0.64113000  0.76151000  0.70969000  1.0
  H  H419  1  0.63220000  0.66420000  0.71437000  1.0
  H  H420  1  0.61996000  0.79758000  0.77125000  1.0
  H  H421  1  0.75665000  0.65295000  0.77733000  1.0
  H  H422  1  0.60279000  0.64513000  0.76525000  1.0
  H  H423  1  0.73240000  0.66922000  0.71052000  1.0
  H  H424  1  0.29008000  0.81298000  0.90176000  1.0
  H  H425  1  0.37896000  0.77890000  0.89822000  1.0
  H  H426  1  0.45154000  0.74034000  0.87136000  1.0
  H  H427  1  0.32705000  0.94563000  0.90760000  1.0
  H  H428  1  0.34571000  0.92189000  0.86505000  1.0
  H  H429  1  0.41904000  0.88796000  0.83839000  1.0
  H  H430  1  0.19014000  0.94652000  0.94212000  1.0
  H  H431  1  0.07983000  0.73763000  0.38872000  1.0
  H  H432  1  0.10856000  0.64569000  0.37437000  1.0
  H  H433  1  0.22925000  0.65317000  0.42090000  1.0
  H  H434  1  0.24097000  0.67571000  0.37491000  1.0
  H  H435  1  0.27150000  0.62670000  0.33706000  1.0
  H  H436  1  0.11356000  0.76532000  0.46658000  1.0
  H  H437  1  0.77074000  0.98180000  0.90706000  1.0
  H  H438  1  0.77528000  0.94746000  0.86433000  1.0
  H  H439  1  0.72959000  0.91385000  0.83643000  1.0
  H  H440  1  0.89936000  0.83644000  0.90877000  1.0
  H  H441  1  0.82481000  0.81589000  0.90946000  1.0
  H  H442  1  0.78081000  0.77821000  0.88268000  1.0
  H  H443  1  0.91044000  0.96756000  0.94490000  1.0
  H  H444  1  0.72731000  0.91571000  0.53900000  1.0
  H  H445  1  0.72905000  0.94269000  0.58661000  1.0
  H  H446  1  0.68777000  0.92669000  0.62325000  1.0
  H  H447  1  0.87990500  0.83803500  0.56856000  1.0
  H  H448  1  0.82470000  0.78810000  0.58003000  1.0
  H  H449  1  0.78490000  0.76704000  0.61559000  1.0
  H  H450  1  0.85669000  0.88865000  0.49023000  1.0
  H  H451  1  0.31461000  0.91371000  0.57368000  1.0
  H  H452  1  0.40273000  0.89455000  0.58410000  1.0
  H  H453  1  0.46685000  0.86615000  0.61664000  1.0
  H  H454  1  0.40008000  0.77422000  0.53288000  1.0
  H  H455  1  0.40228000  0.74848000  0.57673000  1.0
  H  H456  1  0.46688000  0.71570000  0.60883000  1.0
  H  H457  1  0.26859000  0.88965000  0.49786000  1.0
  H  H458  1  0.21986000  0.69796000  0.06292000  1.0
  H  H459  1  0.06635000  0.70399000  0.06603000  1.0
  H  H460  1  0.10323000  0.67665000  0.10890000  1.0
  H  H461  1  0.09769000  0.81897000  0.02494000  1.0
  H  H462  1  0.25781000  0.97257000  0.02409000  1.0
  H  H463  1  0.22152000  0.03116000  0.92328000  1.0
  H  H464  1  0.28276000  0.01168000  0.93850000  1.0
  H  H465  1  0.28682000  0.00402000  0.98609000  1.0
  H  H466  1  0.28040000  0.94480000  0.97909000  1.0
  H  H467  1  0.33958000  0.82134000  0.47181000  1.0
  H  H468  1  0.38376000  0.76744000  0.48839000  1.0
  H  H469  1  0.24672000  0.83702000  0.47107000  1.0
  H  H470  1  0.28299000  0.78789000  0.44865000  1.0
  H  H471  1  0.35049000  0.70627000  0.46587000  1.0
  H  H472  1  0.35910000  0.69954000  0.50017000  1.0
  H  H473  1  0.23049000  0.65123000  0.46937500  1.0
  H  H474  1  0.18887000  0.70567000  0.48727000  1.0
  H  H475  1  0.30977000  0.65149000  0.48279000  1.0
  H  H476  1  0.27405000  0.69919000  0.50605000  1.0
  H  H477  1  0.20560000  0.78346000  0.48897000  1.0
  H  H478  1  0.19686000  0.78998000  0.45471000  1.0
  H  H479  1  0.98228000  0.83706000  0.92085000  1.0
  H  H480  1  0.98775000  0.89077000  0.93664000  1.0
  H  H481  1  0.02825000  0.77155000  0.94955000  1.0
  H  H482  1  0.04953000  0.81771000  0.96378000  1.0
  H  H483  1  0.97912000  0.90064000  0.98258000  1.0
  H  H484  1  0.91381000  0.90579000  0.98070000  1.0
  H  H485  1  0.00224000  0.81906000  0.05204000  1.0
  H  H486  1  0.00038000  0.76212000  0.03844000  1.0
  H  H487  1  0.95067000  0.88109000  0.02365000  1.0
  H  H488  1  0.93112000  0.83372000  0.00941000  1.0
  H  H489  1  0.99824000  0.75424000  0.99105000  1.0
  H  H490  1  0.06440000  0.74610000  0.99283000  1.0
  H  H491  1  0.71426000  0.95704000  0.49691000  1.0
  H  H492  1  0.74281000  0.89549000  0.48264000  1.0
  H  H493  1  0.78548500  0.00307500  0.49456000  1.0
  H  H494  1  0.72656000  0.02732000  0.47636000  1.0
  H  H495  1  0.71136000  0.96798000  0.44363000  1.0
  H  H496  1  0.76025000  0.90433000  0.44003000  1.0
  H  H497  1  0.19738000  0.81228000  0.04860000  1.0
  H  H498  1  0.24128000  0.75318000  0.03560000  1.0
  H  H499  1  0.20610000  0.86916000  0.01906000  1.0
  H  H500  1  0.26005000  0.81645000  0.00596000  1.0
  H  H501  1  0.24589000  0.74015000  0.98885000  1.0
  H  H502  1  0.18241000  0.74047000  0.99054000  1.0
  H  H503  1  0.20782000  0.81876000  0.91695000  1.0
  H  H504  1  0.16285000  0.87627000  0.93128000  1.0
  H  H505  1  0.20303000  0.75923000  0.94689000  1.0
  H  H506  1  0.14853000  0.81121000  0.96008000  1.0
  H  H507  1  0.16369000  0.88993000  0.97741000  1.0
  H  H508  1  0.22856000  0.88638000  0.97622000  1.0
  H  H509  1  0.94687000  0.86821000  0.53515000  1.0
  H  H510  1  0.94988000  0.80558000  0.53805000  1.0
  H  H511  1  0.93372500  0.90805500  0.49036000  1.0
  H  H512  1  0.99915000  0.86961000  0.49912000  1.0
  H  H513  1  0.02343000  0.77333000  0.50623000  1.0
  H  H514  1  0.97364000  0.74962000  0.50162000  1.0
  H  H515  1  0.00910000  0.78770000  0.41794000  1.0
  H  H516  1  0.03872000  0.83200000  0.42130000  1.0
  H  H517  1  0.03263000  0.72987000  0.46462000  1.0
  H  H518  1  0.96758000  0.76924000  0.45568000  1.0
  H  H519  1  0.94360000  0.86328000  0.44882000  1.0
  H  H520  1  0.99228000  0.88848000  0.45323000  1.0
  H  H521  1  0.75360000  0.02774000  0.00533000  1.0
  H  H522  1  0.84469000  0.02163000  0.01193000  1.0
  H  H523  1  0.27561000  0.02291000  0.47345000  1.0
  H  H524  1  0.23444000  0.97174000  0.55715000  1.0
  H  H525  1  0.22608000  0.97264000  0.48585000  1.0
  N  N526  1  0.19758000  0.04400000  0.01499000  1.0
  N  N527  1  0.77640000  0.08998000  0.01166000  1.0
  N  N528  1  0.22832000  0.09042000  0.49392000  1.0
  N  N529  1  0.23055000  0.19073000  0.38066000  1.0
  N  N530  1  0.61224000  0.16968000  0.37899000  1.0
  N  N531  1  0.22159000  0.18425000  0.08936000  1.0
  N  N532  1  0.15878000  0.26778000  0.38698000  1.0
  N  N533  1  0.64146000  0.22892000  0.36121000  1.0
  N  N534  1  0.62925000  0.27833000  0.10502000  1.0
  N  N535  1  0.59489000  0.22259000  0.08696000  1.0
  N  N536  1  0.14332000  0.22828000  0.11055000  1.0
  N  N537  1  0.80910000  0.27012000  0.95388000  1.0
  N  N538  1  0.78120000  0.26022000  0.00593000  1.0
  N  N539  1  0.94883000  0.30607000  0.49502000  1.0
  N  N540  1  0.03093000  0.23005000  0.46716000  1.0
  N  N541  1  0.79801000  0.25955000  0.50092000  1.0
  N  N542  1  0.77729000  0.23163000  0.45026000  1.0
  N  N543  1  0.99755000  0.26835000  0.96079000  1.0
  N  N544  1  0.02066000  0.24530000  0.01419000  1.0
  N  N545  1  0.79178000  0.43218000  0.88586000  1.0
  N  N546  1  0.86805000  0.40925000  0.86219000  1.0
  N  N547  1  0.83309000  0.42637000  0.60102000  1.0
  N  N548  1  0.74873000  0.44095000  0.58838000  1.0
  N  N549  1  0.80565000  0.04021000  0.96291000  1.0
  N  N550  1  0.20904000  0.61008000  0.07702000  1.0
  N  N551  1  0.77421000  0.01608000  0.42944000  1.0
  N  N552  1  0.38678000  0.80230000  0.88506000  1.0
  N  N553  1  0.36872000  0.88302000  0.86680000  1.0
  N  N554  1  0.14354000  0.64158000  0.36630000  1.0
  N  N555  1  0.21852000  0.65796000  0.36675000  1.0
  N  N556  1  0.77598000  0.91140000  0.86854000  1.0
  N  N557  1  0.80461000  0.83689000  0.89372000  1.0
  N  N558  1  0.74162000  0.90512000  0.59320000  1.0
  N  N559  1  0.79598000  0.81800000  0.58962000  1.0
  N  N560  1  0.41571000  0.85635000  0.58968000  1.0
  N  N561  1  0.41616000  0.77382000  0.58523000  1.0
  N  N562  1  0.13786000  0.64676000  0.10421000  1.0
  N  N563  1  0.22228500  0.01081500  0.96267000  1.0
  N  N564  1  0.30592000  0.77234000  0.48789000  1.0
  N  N565  1  0.24916000  0.71642000  0.46708000  1.0
  N  N566  1  0.96805000  0.84127000  0.96106000  1.0
  N  N567  1  0.01210000  0.81304000  0.01149000  1.0
  N  N568  1  0.77418000  0.94842000  0.46997000  1.0
  N  N569  1  0.19033000  0.80461000  0.00826000  1.0
  N  N570  1  0.21728000  0.82496000  0.95727000  1.0
  N  N571  1  0.94858000  0.83036000  0.49888000  1.0
  N  N572  1  0.01894000  0.80762000  0.45681000  1.0
  N  N573  1  0.25207000  0.99537000  0.52039000  1.0
  O  O574  1  0.35204000  0.36192000  0.12703000  1.0
  O  O575  1  0.28736000  0.33836000  0.30337000  1.0
  O  O576  1  0.31068000  0.34668000  0.31588000  1.0
  O  O577  1  0.21189000  0.37363000  0.21601000  1.0
  O  O578  1  0.24633000  0.31477000  0.26785000  1.0
  O  O579  1  0.47221000  0.29131000  0.26720000  1.0
  O  O580  1  0.41923000  0.32851000  0.30298000  1.0
  O  O581  1  0.42067000  0.29679000  0.17145000  1.0
  O  O582  1  0.46566000  0.32358000  0.20247000  1.0
  O  O583  1  0.29861000  0.31589000  0.16541000  1.0
  O  O584  1  0.29061000  0.27653000  0.20508000  1.0
  O  O585  1  0.34666000  0.34102000  0.21020000  1.0
  O  O586  1  0.35327000  0.37593000  0.21093000  1.0
  O  O587  1  0.35813000  0.30527000  0.25887000  1.0
  O  O588  1  0.46984000  0.34602000  0.21780000  1.0
  O  O589  1  0.44004000  0.24398000  0.21876000  1.0
  O  O590  1  0.30352000  0.25946000  0.22284000  1.0
  O  O591  1  0.38854000  0.41416000  0.16887000  1.0
  O  O592  1  0.27625000  0.40753000  0.25851000  1.0
  O  O593  1  0.38351000  0.39665000  0.25556000  1.0
  O  O594  1  0.31359000  0.38041000  0.20942000  1.0
  O  O595  1  0.33319000  0.42669000  0.31366000  1.0
  O  O596  1  0.31696000  0.45420000  0.30011000  1.0
  O  O597  1  0.27410000  0.43678000  0.16383000  1.0
  O  O598  1  0.29668000  0.50772000  0.26274000  1.0
  O  O599  1  0.35523500  0.48116500  0.21056000  1.0
  O  O600  1  0.23757000  0.49483000  0.22121000  1.0
  O  O601  1  0.25137000  0.48811000  0.20243000  1.0
  O  O602  1  0.72345000  0.56065000  0.77104000  1.0
  O  O603  1  0.66984000  0.57344000  0.71963000  1.0
  O  O604  1  0.69703000  0.57399000  0.70562000  1.0
  O  O605  1  0.78046000  0.58592000  0.72663000  1.0
  O  O606  1  0.66478000  0.68766000  0.63314000  1.0
  O  O607  1  0.61712000  0.64730000  0.67489000  1.0
  O  O608  1  0.68739000  0.61653000  0.80693000  1.0
  O  O609  1  0.72412000  0.66848000  0.76763000  1.0
  O  O610  1  0.62369000  0.66329000  0.75885000  1.0
  O  O611  1  0.69363000  0.68545000  0.71596000  1.0
  O  O612  1  0.69970000  0.74054000  0.81036000  1.0
  O  O613  1  0.66368000  0.64390000  0.81914000  1.0
  O  O614  1  0.67513000  0.73213000  0.82203000  1.0
  O  O615  1  0.78733000  0.70485000  0.72650000  1.0
  O  O616  1  0.73147000  0.61525000  0.67650000  1.0
  O  O617  1  0.73988000  0.76782000  0.77603000  1.0
  O  O618  1  0.52373000  0.76503000  0.76752000  1.0
  O  O619  1  0.57374000  0.73522000  0.80501000  1.0
  O  O620  1  0.59042000  0.76066000  0.67386000  1.0
  O  O621  1  0.54330000  0.73162000  0.70220000  1.0
  O  O622  1  0.71589000  0.73777000  0.67314000  1.0
  O  O623  1  0.70346000  0.79336000  0.71006000  1.0
  O  O624  1  0.65644000  0.72294000  0.71556000  1.0
  O  O625  1  0.65495000  0.68611000  0.71707000  1.0
  O  O626  1  0.63474000  0.76316000  0.76333000  1.0
  O  O627  1  0.54008000  0.70634000  0.71683000  1.0
  O  O628  1  0.55669000  0.81505000  0.72121000  1.0
  O  O629  1  0.68719000  0.81303000  0.72703000  1.0
