# generated using pymatgen
data_CoH36(C11N)4
_symmetry_space_group_name_H-M   'P 1'
_cell_length_a   11.43163333
_cell_length_b   40.74870000
_cell_length_c   40.74870000
_cell_angle_alpha   100.12100000
_cell_angle_beta   90.00000000
_cell_angle_gamma   90.00000000
_symmetry_Int_Tables_number   1
_chemical_formula_structural   CoH36(C11N)4
_chemical_formula_sum   'Co8 H288 C352 N32'
_cell_volume   18686.35269318
_cell_formula_units_Z   8
loop_
 _symmetry_equiv_pos_site_id
 _symmetry_equiv_pos_as_xyz
  1  'x, y, z'
loop_
 _atom_site_type_symbol
 _atom_site_label
 _atom_site_symmetry_multiplicity
 _atom_site_fract_x
 _atom_site_fract_y
 _atom_site_fract_z
 _atom_site_occupancy
  C  C0  1  0.14710000  0.63367000  0.29052000  1.0
  C  C1  1  0.12129000  0.66351000  0.27951000  1.0
  C  C2  1  0.21161000  0.68202000  0.26827000  1.0
  C  C3  1  0.32634000  0.66989000  0.26853000  1.0
  C  C4  1  0.34842000  0.64012000  0.27996000  1.0
  C  C5  1  0.36180000  0.56756000  0.24020000  1.0
  C  C6  1  0.42987000  0.55394000  0.21276000  1.0
  C  C7  1  0.53005000  0.53553000  0.21730000  1.0
  C  C8  1  0.55942000  0.53142000  0.24969000  1.0
  C  C9  1  0.48904000  0.54559000  0.27650000  1.0
  C  C10  1  0.09541000  0.03230000  0.25489000  1.0
  C  C11  1  0.12544000  0.05419000  0.23349000  1.0
  C  C12  1  0.03829000  0.07158000  0.21950000  1.0
  C  C13  1  0.92161000  0.06723000  0.22860000  1.0
  C  C14  1  0.89542000  0.04532000  0.25048000  1.0
  C  C15  1  0.76507000  0.90623000  0.30044000  1.0
  C  C16  1  0.80134000  0.93518000  0.28945000  1.0
  C  C17  1  0.09382000  0.95288000  0.24966000  1.0
  C  C18  1  0.19029000  0.93204000  0.24215000  1.0
  C  C19  1  0.24681000  0.94432000  0.29993000  1.0
  C  C20  1  0.14769000  0.96447000  0.30648000  1.0
  C  C21  1  0.26962000  0.92792000  0.26739000  1.0
  C  C22  1  0.77302000  0.76610000  0.08934000  1.0
  C  C23  1  0.78476000  0.74239000  0.11008000  1.0
  C  C24  1  0.89634000  0.73240000  0.11869000  1.0
  C  C25  1  0.99399000  0.74776000  0.10713000  1.0
  C  C26  1  0.97838000  0.77143000  0.08644000  1.0
  C  C27  1  0.80356000  0.86395000  0.09096000  1.0
  C  C28  1  0.73419000  0.88845000  0.10997000  1.0
  C  C29  1  0.56348000  0.85657000  0.08988000  1.0
  C  C30  1  0.63574000  0.83269000  0.07143000  1.0
  C  C31  1  0.61235000  0.88521000  0.10887000  1.0
  C  C32  1  0.72829000  0.22151000  0.07654000  1.0
  C  C33  1  0.70787000  0.20102000  0.10007000  1.0
  C  C34  1  0.76991000  0.20611000  0.13019000  1.0
  C  C35  1  0.85631000  0.23084000  0.13505000  1.0
  C  C36  1  0.87467000  0.25069000  0.11077000  1.0
  C  C37  1  0.82478000  0.34240000  0.10048000  1.0
  C  C38  1  0.79359000  0.36437000  0.12951000  1.0
  C  C39  1  0.69894000  0.35675000  0.14867000  1.0
  C  C40  1  0.63725000  0.32719000  0.13783000  1.0
  C  C41  1  0.67135000  0.30595000  0.10880000  1.0
  C  C42  1  0.53443000  0.91273000  0.12622000  1.0
  C  C43  1  0.51332000  0.90968000  0.16237000  1.0
  C  C44  1  0.44142000  0.88347000  0.16825000  1.0
  C  C45  1  0.55117000  0.93374000  0.18998000  1.0
  C  C46  1  0.66156000  0.98370000  0.21313000  1.0
  C  C47  1  0.63192000  0.95906000  0.18625000  1.0
  C  C48  1  0.37280000  0.90442000  0.26048000  1.0
  C  C49  1  0.43027000  0.90628000  0.22727000  1.0
  C  C50  1  0.40258000  0.88148000  0.20005000  1.0
  C  C51  1  0.50586000  0.93267000  0.22247000  1.0
  C  C52  1  0.61275000  0.98362000  0.24431000  1.0
  C  C53  1  0.53628000  0.95832000  0.24913000  1.0
  C  C54  1  0.91044000  0.70210000  0.13519000  1.0
  C  C55  1  0.97778000  0.70907000  0.16791000  1.0
  C  C56  1  0.09622000  0.70018000  0.16742000  1.0
  C  C57  1  0.92305000  0.72062000  0.19912000  1.0
  C  C58  1  0.75051000  0.74120000  0.23155000  1.0
  C  C59  1  0.80494000  0.73092000  0.20093000  1.0
  C  C60  1  0.18798000  0.71549000  0.25826000  1.0
  C  C61  1  0.10813000  0.71256000  0.22795000  1.0
  C  C62  1  0.15992000  0.70203000  0.19672000  1.0
  C  C63  1  0.98764000  0.72172000  0.22941000  1.0
  C  C64  1  0.81184000  0.74131000  0.26095000  1.0
  C  C65  1  0.92878000  0.73167000  0.26007000  1.0
  C  C66  1  0.73372000  0.18806000  0.15807000  1.0
  C  C67  1  0.82973000  0.16584000  0.16799000  1.0
  C  C68  1  0.84298000  0.13436000  0.14807000  1.0
  C  C69  1  0.89761000  0.17386000  0.19766000  1.0
  C  C70  1  0.95696000  0.21264000  0.24758000  1.0
  C  C71  1  0.89207000  0.20558000  0.21827000  1.0
  C  C72  1  0.07330000  0.09163000  0.19298000  1.0
  C  C73  1  0.98532000  0.11769000  0.18629000  1.0
  C  C74  1  0.91915000  0.11084000  0.15696000  1.0
  C  C75  1  0.97426000  0.14935000  0.20708000  1.0
  C  C76  1  0.02887000  0.18851000  0.25708000  1.0
  C  C77  1  0.03796000  0.15720000  0.23712000  1.0
  C  C78  1  0.67252000  0.37755000  0.18236000  1.0
  C  C79  1  0.65203000  0.41404000  0.18071000  1.0
  C  C80  1  0.74004000  0.43689000  0.19283000  1.0
  C  C81  1  0.54528000  0.42604000  0.16945000  1.0
  C  C82  1  0.35008000  0.41605000  0.14560000  1.0
  C  C83  1  0.45436000  0.40404000  0.15656000  1.0
  C  C84  1  0.60657000  0.52126000  0.18798000  1.0
  C  C85  1  0.61848000  0.48364000  0.18447000  1.0
  C  C86  1  0.72357000  0.47092000  0.19471000  1.0
  C  C87  1  0.52848000  0.46106000  0.17124000  1.0
  C  C88  1  0.33386000  0.45006000  0.14723000  1.0
  C  C89  1  0.42169000  0.47241000  0.15987000  1.0
  C  C90  1  0.35365000  0.53820000  0.35522000  1.0
  C  C91  1  0.37112000  0.50734000  0.36493000  1.0
  C  C92  1  0.33433000  0.47807000  0.34421000  1.0
  C  C93  1  0.27808000  0.48076000  0.31424000  1.0
  C  C94  1  0.26225000  0.51211000  0.30543000  1.0
  C  C95  1  0.34347000  0.62178000  0.36821000  1.0
  C  C96  1  0.41064000  0.63755000  0.39495000  1.0
  C  C97  1  0.58364000  0.62335000  0.36181000  1.0
  C  C98  1  0.51297000  0.60808000  0.33554000  1.0
  C  C99  1  0.53265000  0.63777000  0.39225000  1.0
  C  C100  1  0.23876000  0.69321000  0.53290000  1.0
  C  C101  1  0.20632000  0.66774000  0.54998000  1.0
  C  C102  1  0.22849000  0.67075000  0.58421000  1.0
  C  C103  1  0.28511000  0.69963000  0.60043000  1.0
  C  C104  1  0.31726000  0.72440000  0.58233000  1.0
  C  C105  1  0.31938000  0.82004000  0.50051000  1.0
  C  C106  1  0.36403000  0.84704000  0.48773000  1.0
  C  C107  1  0.48365000  0.84858000  0.48074000  1.0
  C  C108  1  0.55551000  0.82224000  0.48637000  1.0
  C  C109  1  0.50736000  0.79576000  0.49958000  1.0
  C  C110  1  0.27344000  0.72684000  0.46388000  1.0
  C  C111  1  0.21014000  0.71858000  0.43428000  1.0
  C  C112  1  0.05407000  0.75393000  0.45931000  1.0
  C  C113  1  0.11998000  0.76141000  0.48850000  1.0
  C  C114  1  0.09860000  0.73212000  0.43180000  1.0
  C  C115  1  0.27795000  0.81763000  0.57419000  1.0
  C  C116  1  0.20861000  0.83999000  0.59570000  1.0
  C  C117  1  0.09377000  0.83116000  0.60275000  1.0
  C  C118  1  0.05411000  0.79925000  0.58874000  1.0
  C  C119  1  0.12627000  0.77777000  0.56718000  1.0
  C  C120  1  0.89718000  0.95416000  0.34064000  1.0
  C  C121  1  0.86304000  0.92545000  0.35257000  1.0
  C  C122  1  0.79744000  0.90081000  0.33221000  1.0
  C  C123  1  0.86611000  0.03252000  0.34849000  1.0
  C  C124  1  0.87771000  0.05454000  0.37862000  1.0
  C  C125  1  0.98735000  0.06815000  0.38847000  1.0
  C  C126  1  0.08304000  0.05931000  0.36718000  1.0
  C  C127  1  0.06728000  0.03733000  0.33708000  1.0
  C  C128  1  0.81432000  0.86537000  0.00985000  1.0
  C  C129  1  0.81385000  0.88109000  0.98194000  1.0
  C  C130  1  0.87273000  0.86654000  0.95283000  1.0
  C  C131  1  0.93398000  0.83680000  0.95300000  1.0
  C  C132  1  0.93167000  0.82179000  0.98127000  1.0
  C  C133  1  0.76201000  0.74549000  0.01255000  1.0
  C  C134  1  0.68219000  0.72389000  0.99383000  1.0
  C  C135  1  0.58959000  0.73696000  0.97748000  1.0
  C  C136  1  0.58136000  0.77155000  0.98023000  1.0
  C  C137  1  0.66198000  0.79217000  0.99950000  1.0
  C  C138  1  0.03671000  0.07128000  0.85959000  1.0
  C  C139  1  0.03127000  0.05779000  0.88880000  1.0
  C  C140  1  0.94514000  0.03425000  0.89249000  1.0
  C  C141  1  0.86735000  0.02430000  0.86604000  1.0
  C  C142  1  0.87636000  0.03819000  0.83710000  1.0
  C  C143  1  0.01032000  0.10459000  0.73260000  1.0
  C  C144  1  0.98683000  0.11840000  0.70430000  1.0
  C  C145  1  0.87328000  0.12883000  0.69824000  1.0
  C  C146  1  0.78526000  0.12503000  0.72132000  1.0
  C  C147  1  0.81283000  0.11134000  0.74955000  1.0
  C  C148  1  0.04755000  0.14115000  0.82606000  1.0
  C  C149  1  0.13058000  0.16614000  0.83580000  1.0
  C  C150  1  0.27628000  0.13071000  0.80512000  1.0
  C  C151  1  0.19052000  0.10654000  0.79570000  1.0
  C  C152  1  0.24699000  0.16093000  0.82550000  1.0
  C  C153  1  0.99489000  0.02989000  0.73823000  1.0
  C  C154  1  0.05712000  0.00462000  0.71806000  1.0
  C  C155  1  0.15899000  0.99188000  0.73023000  1.0
  C  C156  1  0.19228000  0.00403000  0.76319000  1.0
  C  C157  1  0.12799000  0.02958000  0.78240000  1.0
  C  C158  1  0.78704000  0.33787000  0.02207000  1.0
  C  C159  1  0.82050000  0.36313000  0.00480000  1.0
  C  C160  1  0.93518000  0.36414000  0.99277000  1.0
  C  C161  1  0.01278000  0.33883000  0.99773000  1.0
  C  C162  1  0.97538000  0.31379000  0.01480000  1.0
  C  C163  1  0.70275000  0.24319000  0.00238000  1.0
  C  C164  1  0.60598000  0.22829000  0.98482000  1.0
  C  C165  1  0.48231000  0.26865000  0.01843000  1.0
  C  C166  1  0.58132000  0.28266000  0.03547000  1.0
  C  C167  1  0.49345000  0.24035000  0.99359000  1.0
  C  C168  1  0.48361000  0.55209000  0.76309000  1.0
  C  C169  1  0.49630000  0.58057000  0.74870000  1.0
  C  C170  1  0.39721000  0.59783000  0.74073000  1.0
  C  C171  1  0.28671000  0.58563000  0.74744000  1.0
  C  C172  1  0.27784000  0.55701000  0.76194000  1.0
  C  C173  1  0.35007000  0.46039000  0.84380000  1.0
  C  C174  1  0.31856000  0.43211000  0.85685000  1.0
  C  C175  1  0.24654000  0.40778000  0.83845000  1.0
  C  C176  1  0.20779000  0.41271000  0.80706000  1.0
  C  C177  1  0.24122000  0.44133000  0.79489000  1.0
  C  C178  1  0.48276000  0.47739000  0.73354000  1.0
  C  C179  1  0.57823000  0.46317000  0.71500000  1.0
  C  C180  1  0.64856000  0.44326000  0.76360000  1.0
  C  C181  1  0.55175000  0.45799000  0.78124000  1.0
  C  C182  1  0.66509000  0.44703000  0.73044000  1.0
  C  C183  1  0.37715000  0.54183000  0.85506000  1.0
  C  C184  1  0.43136000  0.55827000  0.88406000  1.0
  C  C185  1  0.55354000  0.55800000  0.88656000  1.0
  C  C186  1  0.61810000  0.54133000  0.85955000  1.0
  C  C187  1  0.56064000  0.52538000  0.83101000  1.0
  C  C188  1  0.17459000  0.34491000  0.51432000  1.0
  C  C189  1  0.14869000  0.37163000  0.49822000  1.0
  C  C190  1  0.23230000  0.39657000  0.49712000  1.0
  C  C191  1  0.34236000  0.39318000  0.51132000  1.0
  C  C192  1  0.36443000  0.36619000  0.52735000  1.0
  C  C193  1  0.38444000  0.24646000  0.57745000  1.0
  C  C194  1  0.40822000  0.22684000  0.60163000  1.0
  C  C195  1  0.41473000  0.24164000  0.63536000  1.0
  C  C196  1  0.40052000  0.27621000  0.64380000  1.0
  C  C197  1  0.37783000  0.29489000  0.61895000  1.0
  C  C198  1  0.10891000  0.33919000  0.58652000  1.0
  C  C199  1  0.99840000  0.34051000  0.60121000  1.0
  C  C200  1  0.99951000  0.28063000  0.59445000  1.0
  C  C201  1  0.10922000  0.28042000  0.57938000  1.0
  C  C202  1  0.94237000  0.31091000  0.60556000  1.0
  C  C203  1  0.40258000  0.26590000  0.50169000  1.0
  C  C204  1  0.40182000  0.24353000  0.47151000  1.0
  C  C205  1  0.29536000  0.23104000  0.45762000  1.0
  C  C206  1  0.19186000  0.24143000  0.47470000  1.0
  C  C207  1  0.19652000  0.26365000  0.50492000  1.0
  C  C208  1  0.02988000  0.72446000  0.39966000  1.0
  C  C209  1  0.91451000  0.70765000  0.40509000  1.0
  C  C210  1  0.91999000  0.67373000  0.40708000  1.0
  C  C211  1  0.80363000  0.72399000  0.40805000  1.0
  C  C212  1  0.68216000  0.77355000  0.40936000  1.0
  C  C213  1  0.79168000  0.75834000  0.40697000  1.0
  C  C214  1  0.60631000  0.65045000  0.42267000  1.0
  C  C215  1  0.71013000  0.67115000  0.41513000  1.0
  C  C216  1  0.82029000  0.65593000  0.41218000  1.0
  C  C217  1  0.70065000  0.70534000  0.41257000  1.0
  C  C218  1  0.58225000  0.75521000  0.41301000  1.0
  C  C219  1  0.59084000  0.72147000  0.41458000  1.0
  C  C220  1  0.53569000  0.87994000  0.47167000  1.0
  C  C221  1  0.58962000  0.87431000  0.43702000  1.0
  C  C222  1  0.71140000  0.87091000  0.43456000  1.0
  C  C223  1  0.52372000  0.87528000  0.40759000  1.0
  C  C224  1  0.33694000  0.87915000  0.37953000  1.0
  C  C225  1  0.40057000  0.87791000  0.40841000  1.0
  C  C226  1  0.77485000  0.86744000  0.34250000  1.0
  C  C227  1  0.70628000  0.87069000  0.37487000  1.0
  C  C228  1  0.76836000  0.86905000  0.40419000  1.0
  C  C229  1  0.58248000  0.87374000  0.37638000  1.0
  C  C230  1  0.39407000  0.87794000  0.34929000  1.0
  C  C231  1  0.51543000  0.87542000  0.34760000  1.0
  C  C232  1  0.33850000  0.18779000  0.83459000  1.0
  C  C233  1  0.34704000  0.19899000  0.87212000  1.0
  C  C234  1  0.40375000  0.17725000  0.88996000  1.0
  C  C235  1  0.30464000  0.23008000  0.88964000  1.0
  C  C236  1  0.20556000  0.28340000  0.89086000  1.0
  C  C237  1  0.24290000  0.25272000  0.87341000  1.0
  C  C238  1  0.38611000  0.22091000  0.98000000  1.0
  C  C239  1  0.37830000  0.21563000  0.94221000  1.0
  C  C240  1  0.41808000  0.18522000  0.92423000  1.0
  C  C241  1  0.32341000  0.23874000  0.92482000  1.0
  C  C242  1  0.22783000  0.29220000  0.92472000  1.0
  C  C243  1  0.28570000  0.27022000  0.94166000  1.0
  C  C244  1  0.97826000  0.39462000  0.97976000  1.0
  C  C245  1  0.03404000  0.38674000  0.94531000  1.0
  C  C246  1  0.15640000  0.38577000  0.94340000  1.0
  C  C247  1  0.96848000  0.38404000  0.91532000  1.0
  C  C248  1  0.78141000  0.38236000  0.88629000  1.0
  C  C249  1  0.84501000  0.38389000  0.91566000  1.0
  C  C250  1  0.22179000  0.37540000  0.85061000  1.0
  C  C251  1  0.15210000  0.38061000  0.88300000  1.0
  C  C252  1  0.21400000  0.38246000  0.91295000  1.0
  C  C253  1  0.02779000  0.38165000  0.88406000  1.0
  C  C254  1  0.83892000  0.38095000  0.85605000  1.0
  C  C255  1  0.96063000  0.38058000  0.85480000  1.0
  C  C256  1  0.77936000  0.43731000  0.71289000  1.0
  C  C257  1  0.77710000  0.40189000  0.69358000  1.0
  C  C258  1  0.71948000  0.39661000  0.66276000  1.0
  C  C259  1  0.84189000  0.37524000  0.70308000  1.0
  C  C260  1  0.96191000  0.35223000  0.74309000  1.0
  C  C261  1  0.89345000  0.37790000  0.73496000  1.0
  C  C262  1  0.82164000  0.31098000  0.62098000  1.0
  C  C263  1  0.80167000  0.34111000  0.64812000  1.0
  C  C264  1  0.73040000  0.36673000  0.64067000  1.0
  C  C265  1  0.85690000  0.34498000  0.67977000  1.0
  C  C266  1  0.98098000  0.32351000  0.71984000  1.0
  C  C267  1  0.92865000  0.31968000  0.68856000  1.0
  C  C268  1  0.84884000  0.14117000  0.66588000  1.0
  C  C269  1  0.74137000  0.16325000  0.66633000  1.0
  C  C270  1  0.64278000  0.14997000  0.64835000  1.0
  C  C271  1  0.73912000  0.19700000  0.68273000  1.0
  C  C272  1  0.83270000  0.24449000  0.71759000  1.0
  C  C273  1  0.83576000  0.21144000  0.70149000  1.0
  C  C274  1  0.42132000  0.22046000  0.66232000  1.0
  C  C275  1  0.53774000  0.20244000  0.66259000  1.0
  C  C276  1  0.54319000  0.16910000  0.64657000  1.0
  C  C277  1  0.63719000  0.21684000  0.68060000  1.0
  C  C278  1  0.73452000  0.26397000  0.71509000  1.0
  C  C279  1  0.63784000  0.25046000  0.69676000  1.0
  C  C280  1  0.36536000  0.44428000  0.35236000  1.0
  C  C281  1  0.31581000  0.43919000  0.38579000  1.0
  C  C282  1  0.39056000  0.44420000  0.41346000  1.0
  C  C283  1  0.19954000  0.42820000  0.38977000  1.0
  C  C284  1  0.00742000  0.41147000  0.36665000  1.0
  C  C285  1  0.12032000  0.42294000  0.36276000  1.0
  C  C286  1  0.19967000  0.42857000  0.48528000  1.0
  C  C287  1  0.23793000  0.42888000  0.44954000  1.0
  C  C288  1  0.35231000  0.43938000  0.44461000  1.0
  C  C289  1  0.16091000  0.42240000  0.42167000  1.0
  C  C290  1  0.97081000  0.40500000  0.39734000  1.0
  C  C291  1  0.04617000  0.41037000  0.42459000  1.0
  C  C292  1  0.23839000  0.96839000  0.70752000  1.0
  C  C293  1  0.17346000  0.93880000  0.68787000  1.0
  C  C294  1  0.13922000  0.94064000  0.65523000  1.0
  C  C295  1  0.15277000  0.90890000  0.70036000  1.0
  C  C296  1  0.16518000  0.87623000  0.74496000  1.0
  C  C297  1  0.18158000  0.90612000  0.73345000  1.0
  C  C298  1  0.00895000  0.85559000  0.62252000  1.0
  C  C299  1  0.06748000  0.88370000  0.64628000  1.0
  C  C300  1  0.08590000  0.91385000  0.63506000  1.0
  C  C301  1  0.10239000  0.88084000  0.67911000  1.0
  C  C302  1  0.12024000  0.84859000  0.72391000  1.0
  C  C303  1  0.08914000  0.85070000  0.69131000  1.0
  C  C304  1  0.49577000  0.71538000  0.95823000  1.0
  C  C305  1  0.53141000  0.67935000  0.94656000  1.0
  C  C306  1  0.48079000  0.65503000  0.96240000  1.0
  C  C307  1  0.61222000  0.66952000  0.92023000  1.0
  C  C308  1  0.74532000  0.68327000  0.87788000  1.0
  C  C309  1  0.66565000  0.69316000  0.90353000  1.0
  C  C310  1  0.61450000  0.57398000  0.91824000  1.0
  C  C311  1  0.58774000  0.61098000  0.92689000  1.0
  C  C312  1  0.50816000  0.62156000  0.95272000  1.0
  C  C313  1  0.64104000  0.63511000  0.91039000  1.0
  C  C314  1  0.77366000  0.64982000  0.86835000  1.0
  C  C315  1  0.72254000  0.62593000  0.88436000  1.0
  C  C316  1  0.00011333  0.09066000  0.42205000  1.0
  C  C317  1  0.08444000  0.11941000  0.42151000  1.0
  C  C318  1  0.04013000  0.14766000  0.41064000  1.0
  C  C319  1  0.20228000  0.11963000  0.43283000  1.0
  C  C320  1  0.36856000  0.09214000  0.45407000  1.0
  C  C321  1  0.25422000  0.09118000  0.44219000  1.0
  C  C322  1  0.29166000  0.20941000  0.42346000  1.0
  C  C323  1  0.22291000  0.17753000  0.42358000  1.0
  C  C324  1  0.10801000  0.17602000  0.41146000  1.0
  C  C325  1  0.27105000  0.14918000  0.43453000  1.0
  C  C326  1  0.43390000  0.12120000  0.45678000  1.0
  C  C327  1  0.38627000  0.14944000  0.44709000  1.0
  C  C328  1  0.92837000  0.02328000  0.92583000  1.0
  C  C329  1  0.91692000  0.98570000  0.92316000  1.0
  C  C330  1  0.80492000  0.97247000  0.92587000  1.0
  C  C331  1  0.01497000  0.96397000  0.92051000  1.0
  C  C332  1  0.22527000  0.95445000  0.91519000  1.0
  C  C333  1  0.12958000  0.97585000  0.91716000  1.0
  C  C334  1  0.85726000  0.87961000  0.92052000  1.0
  C  C335  1  0.88334000  0.91663000  0.92355000  1.0
  C  C336  1  0.78847000  0.93869000  0.92591000  1.0
  C  C337  1  0.99823000  0.92932000  0.92121000  1.0
  C  C338  1  0.20920000  0.92092000  0.91651000  1.0
  C  C339  1  0.09717000  0.90836000  0.91949000  1.0
  C  C340  1  0.18167000  0.64425000  0.60271000  1.0
  C  C341  1  0.24782000  0.64061000  0.63433000  1.0
  C  C342  1  0.19397000  0.65218000  0.66507000  1.0
  C  C343  1  0.35714000  0.62399000  0.63387000  1.0
  C  C344  1  0.52216000  0.59552000  0.60335000  1.0
  C  C345  1  0.41539000  0.61198000  0.60360000  1.0
  C  C346  1  0.41027000  0.63096000  0.72907000  1.0
  C  C347  1  0.35371000  0.63158000  0.69533000  1.0
  C  C348  1  0.24570000  0.64777000  0.69487000  1.0
  C  C349  1  0.41006000  0.61925000  0.66451000  1.0
  C  C350  1  0.57311000  0.59064000  0.63306000  1.0
  C  C351  1  0.51812000  0.60233000  0.66335000  1.0
  Co  Co352  1  0.28516000  0.58154000  0.30778000  1.0
  Co  Co353  1  0.92778000  0.99345000  0.28710000  1.0
  Co  Co354  1  0.86341000  0.80780000  0.04329000  1.0
  Co  Co355  1  0.33672000  0.75876000  0.52796000  1.0
  Co  Co356  1  0.94751000  0.08113000  0.79409000  1.0
  Co  Co357  1  0.83095000  0.28070000  0.05469000  1.0
  Co  Co358  1  0.34950000  0.50257000  0.79164000  1.0
  Co  Co359  1  0.31944000  0.31033000  0.55709000  1.0
  H  H360  1  0.22094000  0.51396000  0.28196000  1.0
  H  H361  1  0.07752000  0.61953000  0.29937000  1.0
  H  H362  1  0.03181000  0.67216000  0.28011000  1.0
  H  H363  1  0.39880000  0.68351000  0.26033000  1.0
  H  H364  1  0.43721000  0.63121000  0.27995000  1.0
  H  H365  1  0.55458000  0.59855000  0.31223000  1.0
  H  H366  1  0.28173000  0.58026000  0.23602000  1.0
  H  H367  1  0.40347000  0.55750000  0.18813000  1.0
  H  H368  1  0.63584000  0.51722000  0.25425000  1.0
  H  H369  1  0.51169000  0.54134000  0.30112000  1.0
  H  H370  1  0.16496000  0.01880000  0.26439000  1.0
  H  H371  1  0.80544000  0.04161000  0.25700000  1.0
  H  H372  1  0.21644000  0.05670000  0.22702000  1.0
  H  H373  1  0.85074000  0.07982000  0.21836000  1.0
  H  H374  1  0.71620000  0.88765000  0.28368000  1.0
  H  H375  1  0.78134000  0.93840000  0.26431000  1.0
  H  H376  1  0.03221000  0.95568000  0.23021000  1.0
  H  H377  1  0.20131000  0.91904000  0.21685000  1.0
  H  H378  1  0.30378000  0.94100000  0.32029000  1.0
  H  H379  1  0.14152000  0.03150000  0.32089000  1.0
  H  H380  1  0.68664000  0.77167000  0.08149000  1.0
  H  H381  1  0.70704000  0.73069000  0.11788000  1.0
  H  H382  1  0.08164000  0.74040000  0.11270000  1.0
  H  H383  1  0.05397000  0.78222000  0.07647000  1.0
  H  H384  1  0.89752000  0.86686000  0.09107000  1.0
  H  H385  1  0.77506000  0.91011000  0.12468000  1.0
  H  H386  1  0.46973000  0.85288000  0.08888000  1.0
  H  H387  1  0.59474000  0.81068000  0.05802000  1.0
  H  H388  1  0.67544000  0.21741000  0.05447000  1.0
  H  H389  1  0.93862000  0.27051000  0.11520000  1.0
  H  H390  1  0.64042000  0.18215000  0.09525000  1.0
  H  H391  1  0.90643000  0.23564000  0.15787000  1.0
  H  H392  1  0.90234000  0.34759000  0.08715000  1.0
  H  H393  1  0.84606000  0.38639000  0.13766000  1.0
  H  H394  1  0.56571000  0.31989000  0.15238000  1.0
  H  H395  1  0.62554000  0.28261000  0.10193000  1.0
  H  H396  1  0.57028000  0.93715000  0.12310000  1.0
  H  H397  1  0.44805000  0.91086000  0.11347000  1.0
  H  H398  1  0.41126000  0.86483000  0.14776000  1.0
  H  H399  1  0.72272000  0.00299000  0.20961000  1.0
  H  H400  1  0.67539000  0.96007000  0.16299000  1.0
  H  H401  1  0.43791000  0.90934000  0.28097000  1.0
  H  H402  1  0.33934000  0.87885000  0.26063000  1.0
  H  H403  1  0.34507000  0.86112000  0.20311000  1.0
  H  H404  1  0.63575000  0.00294000  0.26505000  1.0
  H  H405  1  0.50204000  0.95927000  0.27397000  1.0
  H  H406  1  0.82412000  0.69092000  0.13912000  1.0
  H  H407  1  0.95783000  0.68299000  0.11722000  1.0
  H  H408  1  0.13992000  0.69117000  0.14400000  1.0
  H  H409  1  0.65988000  0.74892000  0.23247000  1.0
  H  H410  1  0.75324000  0.73146000  0.17889000  1.0
  H  H411  1  0.15356000  0.73274000  0.28006000  1.0
  H  H412  1  0.27208000  0.72675000  0.25214000  1.0
  H  H413  1  0.25139000  0.69503000  0.19498000  1.0
  H  H414  1  0.76847000  0.74894000  0.28466000  1.0
  H  H415  1  0.97019000  0.73172000  0.28382000  1.0
  H  H416  1  0.70265000  0.20662000  0.17936000  1.0
  H  H417  1  0.65611000  0.17221000  0.15005000  1.0
  H  H418  1  0.79214000  0.12767000  0.12545000  1.0
  H  H419  1  0.95142000  0.23704000  0.26305000  1.0
  H  H420  1  0.83986000  0.22564000  0.21209000  1.0
  H  H421  1  0.15922000  0.10372000  0.19959000  1.0
  H  H422  1  0.09017000  0.07338000  0.16981000  1.0
  H  H423  1  0.92639000  0.08693000  0.14063000  1.0
  H  H424  1  0.07848000  0.19415000  0.27998000  1.0
  H  H425  1  0.09496000  0.13934000  0.24572000  1.0
  H  H426  1  0.59549000  0.36755000  0.19399000  1.0
  H  H427  1  0.74819000  0.37493000  0.19883000  1.0
  H  H428  1  0.82223000  0.42837000  0.20152000  1.0
  H  H429  1  0.28143000  0.39885000  0.13574000  1.0
  H  H430  1  0.46226000  0.37740000  0.15464000  1.0
  H  H431  1  0.57230000  0.52779000  0.16446000  1.0
  H  H432  1  0.69377000  0.53331000  0.19218000  1.0
  H  H433  1  0.79370000  0.48756000  0.20472000  1.0
  H  H434  1  0.25268000  0.45920000  0.13860000  1.0
  H  H435  1  0.40428000  0.49848000  0.16043000  1.0
  H  H436  1  0.12960000  0.97543000  0.33194000  1.0
  H  H437  1  0.38441000  0.55992000  0.37176000  1.0
  H  H438  1  0.41589000  0.50637000  0.38813000  1.0
  H  H439  1  0.24925000  0.45876000  0.29733000  1.0
  H  H440  1  0.24949000  0.62073000  0.37076000  1.0
  H  H441  1  0.36766000  0.64845000  0.41795000  1.0
  H  H442  1  0.67744000  0.62332000  0.35842000  1.0
  H  H443  1  0.21977000  0.68992000  0.50673000  1.0
  H  H444  1  0.36076000  0.74661000  0.59498000  1.0
  H  H445  1  0.16208000  0.64597000  0.53655000  1.0
  H  H446  1  0.30303000  0.70340000  0.62688000  1.0
  H  H447  1  0.22778000  0.82007000  0.50662000  1.0
  H  H448  1  0.30577000  0.86716000  0.48455000  1.0
  H  H449  1  0.64858000  0.82268000  0.48169000  1.0
  H  H450  1  0.56326000  0.77583000  0.50459000  1.0
  H  H451  1  0.36049000  0.71689000  0.46546000  1.0
  H  H452  1  0.24885000  0.70213000  0.41337000  1.0
  H  H453  1  0.96988000  0.76574000  0.45807000  1.0
  H  H454  1  0.08533000  0.77993000  0.50801000  1.0
  H  H455  1  0.36688000  0.82449000  0.56951000  1.0
  H  H456  1  0.24495000  0.86403000  0.60618000  1.0
  H  H457  1  0.96671000  0.79125000  0.59381000  1.0
  H  H458  1  0.09351000  0.75338000  0.55643000  1.0
  H  H459  1  0.95111000  0.97203000  0.35643000  1.0
  H  H460  1  0.89157000  0.92197000  0.37704000  1.0
  H  H461  1  0.78102000  0.02237000  0.34089000  1.0
  H  H462  1  0.80140000  0.06077000  0.39418000  1.0
  H  H463  1  0.16939000  0.06921000  0.37356000  1.0
  H  H464  1  0.76425000  0.87670000  0.03116000  1.0
  H  H465  1  0.97566000  0.79823000  0.98079000  1.0
  H  H466  1  0.76381000  0.90374000  0.98271000  1.0
  H  H467  1  0.97958000  0.82449000  0.93097000  1.0
  H  H468  1  0.83504000  0.73504000  0.02401000  1.0
  H  H469  1  0.69350000  0.69733000  0.99232000  1.0
  H  H470  1  0.51173000  0.78265000  0.96788000  1.0
  H  H471  1  0.65169000  0.81871000  0.00152000  1.0
  H  H472  1  0.10340000  0.08953000  0.85793000  1.0
  H  H473  1  0.81458000  0.03099000  0.81705000  1.0
  H  H474  1  0.09216000  0.06646000  0.90878000  1.0
  H  H475  1  0.79797000  0.00673000  0.86805000  1.0
  H  H476  1  0.09722000  0.09558000  0.73585000  1.0
  H  H477  1  0.05667000  0.12021000  0.68677000  1.0
  H  H478  1  0.69574000  0.13206000  0.71753000  1.0
  H  H479  1  0.74491000  0.10829000  0.76722000  1.0
  H  H480  1  0.95767000  0.14530000  0.83392000  1.0
  H  H481  1  0.10382000  0.18938000  0.85105000  1.0
  H  H482  1  0.36458000  0.12603000  0.79590000  1.0
  H  H483  1  0.21570000  0.08462000  0.77856000  1.0
  H  H484  1  0.91560000  0.03907000  0.72864000  1.0
  H  H485  1  0.02698000  0.99578000  0.69292000  1.0
  H  H486  1  0.26977000  0.99466000  0.77369000  1.0
  H  H487  1  0.15759000  0.03918000  0.80734000  1.0
  H  H488  1  0.70063000  0.33871000  0.03265000  1.0
  H  H489  1  0.75855000  0.38260000  0.00224000  1.0
  H  H490  1  0.10291000  0.33920000  0.98982000  1.0
  H  H491  1  0.03640000  0.29484000  0.01937000  1.0
  H  H492  1  0.78893000  0.23289000  0.99656000  1.0
  H  H493  1  0.61881000  0.20657000  0.96573000  1.0
  H  H494  1  0.39719000  0.27919000  0.02550000  1.0
  H  H495  1  0.56944000  0.30464000  0.05400000  1.0
  H  H496  1  0.56136000  0.53921000  0.76851000  1.0
  H  H497  1  0.19256000  0.54796000  0.76754000  1.0
  H  H498  1  0.58334000  0.58938000  0.74445000  1.0
  H  H499  1  0.20806000  0.59861000  0.74233000  1.0
  H  H500  1  0.40805000  0.47793000  0.85842000  1.0
  H  H501  1  0.35273000  0.42891000  0.88084000  1.0
  H  H502  1  0.15398000  0.39430000  0.79170000  1.0
  H  H503  1  0.21148000  0.44488000  0.77058000  1.0
  H  H504  1  0.41704000  0.49021000  0.72152000  1.0
  H  H505  1  0.58652000  0.46607000  0.68922000  1.0
  H  H506  1  0.71250000  0.43043000  0.77626000  1.0
  H  H507  1  0.54349000  0.45601000  0.80715000  1.0
  H  H508  1  0.28283000  0.54187000  0.85324000  1.0
  H  H509  1  0.37826000  0.57076000  0.90446000  1.0
  H  H510  1  0.71265000  0.54061000  0.86043000  1.0
  H  H511  1  0.61401000  0.51409000  0.81047000  1.0
  H  H512  1  0.10678000  0.32702000  0.51617000  1.0
  H  H513  1  0.44785000  0.36435000  0.53937000  1.0
  H  H514  1  0.06201000  0.37349000  0.48815000  1.0
  H  H515  1  0.40895000  0.41204000  0.51139000  1.0
  H  H516  1  0.37529000  0.23409000  0.55201000  1.0
  H  H517  1  0.41675000  0.20013000  0.59418000  1.0
  H  H518  1  0.40249000  0.28864000  0.66953000  1.0
  H  H519  1  0.36394000  0.32146000  0.62572000  1.0
  H  H520  1  0.15339000  0.36219000  0.58472000  1.0
  H  H521  1  0.95831000  0.36459000  0.60937000  1.0
  H  H522  1  0.95965000  0.25725000  0.59742000  1.0
  H  H523  1  0.15194000  0.25680000  0.57129000  1.0
  H  H524  1  0.48465000  0.27620000  0.51189000  1.0
  H  H525  1  0.48361000  0.23674000  0.45876000  1.0
  H  H526  1  0.10756000  0.23325000  0.46430000  1.0
  H  H527  1  0.11488000  0.27217000  0.51636000  1.0
  H  H528  1  0.01879000  0.74762000  0.38946000  1.0
  H  H529  1  0.08147000  0.70749000  0.38066000  1.0
  H  H530  1  0.00325000  0.66084000  0.40494000  1.0
  H  H531  1  0.67467000  0.79979000  0.40835000  1.0
  H  H532  1  0.86538000  0.77425000  0.40473000  1.0
  H  H533  1  0.55225000  0.66492000  0.44282000  1.0
  H  H534  1  0.63706000  0.62819000  0.43250000  1.0
  H  H535  1  0.82955000  0.62986000  0.41395000  1.0
  H  H536  1  0.49754000  0.76723000  0.41478000  1.0
  H  H537  1  0.51029000  0.70835000  0.41718000  1.0
  H  H538  1  0.46934000  0.90010000  0.47384000  1.0
  H  H539  1  0.60395000  0.88892000  0.49055000  1.0
  H  H540  1  0.76368000  0.87009000  0.45655000  1.0
  H  H541  1  0.24261000  0.88110000  0.38063000  1.0
  H  H542  1  0.35151000  0.87887000  0.43111000  1.0
  H  H543  1  0.72942000  0.85015000  0.32243000  1.0
  H  H544  1  0.86153000  0.85598000  0.34553000  1.0
  H  H545  1  0.86262000  0.86645000  0.40367000  1.0
  H  H546  1  0.34391000  0.87890000  0.32700000  1.0
  H  H547  1  0.55508000  0.87491000  0.32350000  1.0
  H  H548  1  0.42543000  0.17803000  0.82528000  1.0
  H  H549  1  0.31969000  0.20830000  0.82096000  1.0
  H  H550  1  0.43650000  0.15348000  0.87715000  1.0
  H  H551  1  0.15896000  0.30048000  0.87800000  1.0
  H  H552  1  0.22034000  0.24725000  0.84737000  1.0
  H  H553  1  0.39116000  0.19632000  0.98818000  1.0
  H  H554  1  0.30506000  0.23286000  0.99140000  1.0
  H  H555  1  0.45978000  0.16714000  0.93692000  1.0
  H  H556  1  0.19930000  0.31612000  0.93800000  1.0
  H  H557  1  0.30095000  0.27846000  0.96795000  1.0
  H  H558  1  0.90666000  0.41302000  0.97973000  1.0
  H  H559  1  0.04375000  0.40700000  0.99800000  1.0
  H  H560  1  0.20855000  0.38788000  0.96584000  1.0
  H  H561  1  0.68682000  0.38240000  0.88701000  1.0
  H  H562  1  0.79594000  0.38470000  0.93842000  1.0
  H  H563  1  0.17679000  0.35733000  0.83114000  1.0
  H  H564  1  0.30770000  0.36399000  0.85470000  1.0
  H  H565  1  0.30862000  0.38143000  0.91287000  1.0
  H  H566  1  0.78889000  0.38006000  0.83338000  1.0
  H  H567  1  0.00046000  0.37975000  0.83069000  1.0
  H  H568  1  0.79556000  0.45436000  0.69484000  1.0
  H  H569  1  0.85267000  0.44166000  0.73085000  1.0
  H  H570  1  0.66940000  0.41642000  0.65496000  1.0
  H  H571  1  0.00058000  0.35463000  0.76760000  1.0
  H  H572  1  0.88062000  0.39932000  0.75426000  1.0
  H  H573  1  0.75702000  0.31041000  0.60053000  1.0
  H  H574  1  0.80702000  0.28773000  0.63112000  1.0
  H  H575  1  0.68706000  0.36429000  0.61674000  1.0
  H  H576  1  0.03556000  0.30389000  0.72622000  1.0
  H  H577  1  0.94500000  0.29661000  0.67165000  1.0
  H  H578  1  0.92660000  0.15474000  0.65884000  1.0
  H  H579  1  0.84084000  0.11876000  0.64608000  1.0
  H  H580  1  0.64240000  0.12433000  0.63556000  1.0
  H  H581  1  0.90709000  0.25504000  0.73209000  1.0
  H  H582  1  0.91428000  0.19744000  0.70424000  1.0
  H  H583  1  0.40344000  0.23561000  0.68721000  1.0
  H  H584  1  0.34940000  0.20186000  0.65761000  1.0
  H  H585  1  0.46860000  0.15748000  0.63282000  1.0
  H  H586  1  0.73311000  0.28970000  0.72751000  1.0
  H  H587  1  0.56452000  0.26680000  0.69553000  1.0
  H  H588  1  0.33664000  0.42388000  0.33223000  1.0
  H  H589  1  0.46239000  0.44279000  0.35295000  1.0
  H  H590  1  0.47978000  0.45237000  0.41106000  1.0
  H  H591  1  0.94807000  0.40743000  0.34565000  1.0
  H  H592  1  0.14367000  0.42768000  0.33838000  1.0
  H  H593  1  0.10484000  0.43352000  0.48872000  1.0
  H  H594  1  0.24389000  0.44953000  0.50183000  1.0
  H  H595  1  0.41255000  0.44464000  0.46536000  1.0
  H  H596  1  0.88323000  0.39582000  0.40010000  1.0
  H  H597  1  0.01280000  0.40454000  0.44758000  1.0
  H  H598  1  0.27901000  0.98313000  0.69003000  1.0
  H  H599  1  0.31200000  0.95982000  0.72164000  1.0
  H  H600  1  0.15423000  0.96314000  0.64513000  1.0
  H  H601  1  0.18807000  0.87446000  0.77034000  1.0
  H  H602  1  0.21612000  0.92687000  0.75091000  1.0
  H  H603  1  0.95552000  0.86603000  0.60402000  1.0
  H  H604  1  0.94536000  0.84217000  0.63592000  1.0
  H  H605  1  0.06058000  0.91653000  0.61006000  1.0
  H  H606  1  0.10900000  0.82536000  0.73293000  1.0
  H  H607  1  0.05571000  0.82838000  0.67595000  1.0
  H  H608  1  0.41730000  0.71699000  0.97452000  1.0
  H  H609  1  0.46840000  0.72644000  0.93638000  1.0
  H  H610  1  0.41902000  0.66196000  0.98256000  1.0
  H  H611  1  0.78550000  0.70169000  0.86535000  1.0
  H  H612  1  0.64715000  0.71949000  0.91002000  1.0
  H  H613  1  0.58391000  0.56102000  0.93849000  1.0
  H  H614  1  0.71054000  0.57008000  0.91631000  1.0
  H  H615  1  0.46647000  0.60368000  0.96567000  1.0
  H  H616  1  0.83588000  0.64233000  0.84845000  1.0
  H  H617  1  0.74835000  0.60041000  0.87602000  1.0
  H  H618  1  0.91294000  0.10106000  0.43032000  1.0
  H  H619  1  0.02463000  0.07524000  0.44075000  1.0
  H  H620  1  0.95102000  0.14790000  0.40167000  1.0
  H  H621  1  0.40680000  0.07014000  0.46118000  1.0
  H  H622  1  0.20917000  0.06765000  0.43989000  1.0
  H  H623  1  0.24980000  0.22434000  0.40634000  1.0
  H  H624  1  0.38118000  0.20350000  0.41361000  1.0
  H  H625  1  0.06954000  0.19725000  0.40284000  1.0
  H  H626  1  0.52249000  0.12178000  0.46618000  1.0
  H  H627  1  0.44119000  0.17128000  0.44964000  1.0
  H  H628  1  0.00055000  0.03263000  0.94321000  1.0
  H  H629  1  0.84777000  0.03574000  0.93708000  1.0
  H  H630  1  0.72877000  0.98849000  0.92803000  1.0
  H  H631  1  0.31253000  0.96397000  0.91269000  1.0
  H  H632  1  0.14699000  0.00161000  0.91580000  1.0
  H  H633  1  0.91139000  0.86519000  0.90037000  1.0
  H  H634  1  0.76490000  0.87466000  0.91267000  1.0
  H  H635  1  0.70000000  0.92966000  0.92760000  1.0
  H  H636  1  0.28406000  0.90451000  0.91516000  1.0
  H  H637  1  0.08975000  0.88218000  0.92065000  1.0
  H  H638  1  0.08852000  0.65052000  0.60854000  1.0
  H  H639  1  0.17964000  0.61978000  0.58566000  1.0
  H  H640  1  0.11035000  0.66478000  0.66611000  1.0
  H  H641  1  0.56563000  0.58645000  0.57994000  1.0
  H  H642  1  0.37992000  0.61525000  0.57982000  1.0
  H  H643  1  0.36911000  0.65018000  0.74835000  1.0
  H  H644  1  0.50388000  0.63804000  0.72823000  1.0
  H  H645  1  0.20107000  0.65755000  0.71795000  1.0
  H  H646  1  0.65593000  0.57774000  0.63264000  1.0
  H  H647  1  0.56137000  0.59771000  0.68560000  1.0
  N  N648  1  0.25914000  0.62243000  0.29065000  1.0
  N  N649  1  0.39412000  0.56466000  0.27180000  1.0
  N  N650  1  0.98106000  0.02751000  0.26256000  1.0
  N  N651  1  0.86754000  0.95844000  0.30917000  1.0
  N  N652  1  0.07466000  0.96932000  0.28124000  1.0
  N  N653  1  0.86944000  0.77961000  0.07708000  1.0
  N  N654  1  0.75407000  0.83730000  0.07084000  1.0
  N  N655  1  0.80815000  0.24683000  0.08258000  1.0
  N  N656  1  0.76308000  0.31379000  0.09007000  1.0
  N  N657  1  0.30274000  0.54024000  0.32527000  1.0
  N  N658  1  0.39485000  0.60579000  0.33967000  1.0
  N  N659  1  0.29127000  0.72148000  0.54927000  1.0
  N  N660  1  0.39147000  0.79531000  0.50715000  1.0
  N  N661  1  0.22755000  0.74731000  0.49087000  1.0
  N  N662  1  0.23390000  0.78794000  0.55838000  1.0
  N  N663  1  0.96072000  0.02314000  0.32879000  1.0
  N  N664  1  0.86976000  0.83543000  0.00883000  1.0
  N  N665  1  0.74779000  0.77921000  0.01680000  1.0
  N  N666  1  0.95902000  0.06157000  0.83422000  1.0
  N  N667  1  0.92357000  0.10112000  0.75473000  1.0
  N  N668  1  0.07779000  0.11167000  0.80660000  1.0
  N  N669  1  0.03530000  0.04382000  0.76904000  1.0
  N  N670  1  0.86487000  0.31392000  0.02725000  1.0
  N  N671  1  0.68896000  0.26845000  0.02885000  1.0
  N  N672  1  0.37527000  0.54078000  0.76979000  1.0
  N  N673  1  0.31228000  0.46457000  0.81292000  1.0
  N  N674  1  0.47588000  0.47721000  0.76690000  1.0
  N  N675  1  0.44119000  0.52478000  0.82940000  1.0
  N  N676  1  0.28036000  0.34304000  0.52947000  1.0
  N  N677  1  0.36688000  0.28003000  0.58649000  1.0
  N  N678  1  0.16085000  0.30942000  0.57445000  1.0
  N  N679  1  0.30130000  0.27536000  0.51829000  1.0
