# generated using pymatgen
data_Ge2H6C4S3N4
_symmetry_space_group_name_H-M   'P 1'
_cell_length_a   16.45445000
_cell_length_b   28.98630000
_cell_length_c   29.45020000
_cell_angle_alpha   90.00000000
_cell_angle_beta   90.00000000
_cell_angle_gamma   90.00000000
_symmetry_Int_Tables_number   1
_chemical_formula_structural   Ge2H6C4S3N4
_chemical_formula_sum   'Ge32 H96 C64 S48 N64'
_cell_volume   14046.37961856
_cell_formula_units_Z   16
loop_
 _symmetry_equiv_pos_site_id
 _symmetry_equiv_pos_as_xyz
  1  'x, y, z'
loop_
 _atom_site_type_symbol
 _atom_site_label
 _atom_site_symmetry_multiplicity
 _atom_site_fract_x
 _atom_site_fract_y
 _atom_site_fract_z
 _atom_site_occupancy
  C  C0  1  0.20456000  0.74521000  0.38348000  1.0
  C  C1  1  0.28798000  0.56715000  0.24327000  1.0
  C  C2  1  0.18952000  0.52619000  0.46354000  1.0
  C  C3  1  0.90678000  0.60490000  0.31644000  1.0
  C  C4  1  0.45436000  0.81281000  0.45131000  1.0
  C  C5  1  0.24264000  0.96834000  0.32912000  1.0
  C  C6  1  0.48358000  0.03915000  0.50058000  1.0
  C  C7  1  0.64894000  0.95328000  0.30668000  1.0
  C  C8  1  0.66692000  0.32018000  0.09055000  1.0
  C  C9  1  0.89128000  0.47216000  0.20879000  1.0
  C  C10  1  0.61286000  0.55057000  0.06419000  1.0
  C  C11  1  0.49572000  0.44259000  0.25910000  1.0
  C  C12  1  0.91604000  0.24893000  0.15551000  1.0
  C  C13  1  0.80316000  0.10101000  0.32074000  1.0
  C  C14  1  0.94170000  0.01863000  0.11989000  1.0
  C  C15  1  0.19812000  0.12567000  0.26476000  1.0
  C  C16  1  0.95426000  0.32065000  0.59055000  1.0
  C  C17  1  0.74214000  0.44943000  0.73851000  1.0
  C  C18  1  0.96696000  0.55255000  0.57635000  1.0
  C  C19  1  0.15092000  0.44145000  0.75206000  1.0
  C  C20  1  0.70512000  0.24540000  0.65061000  1.0
  C  C21  1  0.81886000  0.10265000  0.81952000  1.0
  C  C22  1  0.70306000  0.01536000  0.61558000  1.0
  C  C23  1  0.42650000  0.11362000  0.75447000  1.0
  C  C24  1  0.41348000  0.74088000  0.89718000  1.0
  C  C25  1  0.30282000  0.58948000  0.73452000  1.0
  C  C26  1  0.40932000  0.51244000  0.94424000  1.0
  C  C27  1  0.69236000  0.60559000  0.80441000  1.0
  C  C28  1  0.16642000  0.81772000  0.95879000  1.0
  C  C29  1  0.39124000  0.96256000  0.83389000  1.0
  C  C30  1  0.15240000  0.04659000  0.00049000  1.0
  C  C31  1  0.98282000  0.95810000  0.80901000  1.0
  C  C32  1  0.36116000  0.53972000  0.25709000  1.0
  C  C33  1  0.44966000  0.48686000  0.26361000  1.0
  C  C34  1  0.22906000  0.07786000  0.27323000  1.0
  C  C35  1  0.24674000  0.01071000  0.30018000  1.0
  C  C36  1  0.89510000  0.51945000  0.22900000  1.0
  C  C37  1  0.89656000  0.57593000  0.27482000  1.0
  C  C38  1  0.74088000  0.06530000  0.30890000  1.0
  C  C39  1  0.67714000  0.00207000  0.30167000  1.0
  C  C40  1  0.72094000  0.55726000  0.79665000  1.0
  C  C41  1  0.74074000  0.49065000  0.76899000  1.0
  C  C42  1  0.88498000  0.06855000  0.81016000  1.0
  C  C43  1  0.95400000  0.00694000  0.80482000  1.0
  C  C44  1  0.27536000  0.54043000  0.73070000  1.0
  C  C45  1  0.21226000  0.47718000  0.73916000  1.0
  C  C46  1  0.39094000  0.00059000  0.79957000  1.0
  C  C47  1  0.40354000  0.06510000  0.76623000  1.0
  C  C48  1  0.04576000  0.55409000  0.55091000  1.0
  C  C49  1  0.14072000  0.54219000  0.50349000  1.0
  C  C50  1  0.53488000  0.02048000  0.53839000  1.0
  C  C51  1  0.62908000  0.00953000  0.58649000  1.0
  C  C52  1  0.53526000  0.54398000  0.03854000  1.0
  C  C53  1  0.44842000  0.52678000  0.98797000  1.0
  C  C54  1  0.10648000  0.02882000  0.04077000  1.0
  C  C55  1  0.01620000  0.01605000  0.09075000  1.0
  C  C56  1  0.29132000  0.75202000  0.39741000  1.0
  C  C57  1  0.39770000  0.78200000  0.42564000  1.0
  C  C58  1  0.82904000  0.25574000  0.14152000  1.0
  C  C59  1  0.72296000  0.28749000  0.11449000  1.0
  C  C60  1  0.79194000  0.25301000  0.63667000  1.0
  C  C61  1  0.89816000  0.28599000  0.61145000  1.0
  C  C62  1  0.32652000  0.75186000  0.90791000  1.0
  C  C63  1  0.22152000  0.78540000  0.93391000  1.0
  Ge  Ge64  1  0.18126000  0.68096000  0.36930000  1.0
  Ge  Ge65  1  0.22452000  0.58680000  0.29582000  1.0
  Ge  Ge66  1  0.17020000  0.56609000  0.41129000  1.0
  Ge  Ge67  1  0.02138000  0.60714000  0.33325000  1.0
  Ge  Ge68  1  0.45446000  0.87460000  0.42507000  1.0
  Ge  Ge69  1  0.34494000  0.95833000  0.36088000  1.0
  Ge  Ge70  1  0.47320000  0.99413000  0.45171000  1.0
  Ge  Ge71  1  0.55970000  0.94988000  0.34994000  1.0
  Ge  Ge72  1  0.66638000  0.37991000  0.12113000  1.0
  Ge  Ge73  1  0.78356000  0.46065000  0.18427000  1.0
  Ge  Ge74  1  0.63348000  0.50031000  0.10644000  1.0
  Ge  Ge75  1  0.57424000  0.44587000  0.20960000  1.0
  Ge  Ge76  1  0.93600000  0.18885000  0.18335000  1.0
  Ge  Ge77  1  0.87868000  0.11005000  0.27048000  1.0
  Ge  Ge78  1  0.95234000  0.06814000  0.16426000  1.0
  Ge  Ge79  1  0.08722000  0.12355000  0.24161000  1.0
  Ge  Ge80  1  0.95392000  0.37761000  0.62588000  1.0
  Ge  Ge81  1  0.84302000  0.44733000  0.70399000  1.0
  Ge  Ge82  1  0.96296000  0.50010000  0.61768000  1.0
  Ge  Ge83  1  0.05894000  0.44261000  0.71021000  1.0
  Ge  Ge84  1  0.68742000  0.18524000  0.67868000  1.0
  Ge  Ge85  1  0.74684000  0.10881000  0.76730000  1.0
  Ge  Ge86  1  0.68508000  0.06423000  0.65992000  1.0
  Ge  Ge87  1  0.53912000  0.11560000  0.73389000  1.0
  Ge  Ge88  1  0.42836000  0.67901000  0.87254000  1.0
  Ge  Ge89  1  0.37288000  0.59802000  0.78719000  1.0
  Ge  Ge90  1  0.42982000  0.55882000  0.89750000  1.0
  Ge  Ge91  1  0.57880000  0.60644000  0.82307000  1.0
  Ge  Ge92  1  0.16972000  0.87872000  0.93079000  1.0
  Ge  Ge93  1  0.28674000  0.95740000  0.86442000  1.0
  Ge  Ge94  1  0.16012000  0.99948000  0.95335000  1.0
  Ge  Ge95  1  0.07190000  0.95389000  0.85244000  1.0
  H  H96  1  0.19204000  0.76651000  0.35296000  1.0
  H  H97  1  0.16216000  0.75593000  0.41075000  1.0
  H  H98  1  0.24704000  0.54642000  0.22143000  1.0
  H  H99  1  0.30770000  0.59802000  0.22393000  1.0
  H  H100  1  0.17438000  0.49000000  0.45465000  1.0
  H  H101  1  0.25518000  0.52764000  0.47207000  1.0
  H  H102  1  0.87018000  0.59109000  0.34502000  1.0
  H  H103  1  0.88574000  0.64055000  0.30927000  1.0
  H  H104  1  0.51704000  0.79875000  0.44958000  1.0
  H  H105  1  0.43688000  0.81463000  0.48763000  1.0
  H  H106  1  0.23088000  0.93799000  0.30709000  1.0
  H  H107  1  0.19244000  0.97060000  0.35417000  1.0
  H  H108  1  0.50868000  0.07177000  0.48677000  1.0
  H  H109  1  0.42192000  0.04659000  0.51400000  1.0
  H  H110  1  0.69934000  0.93062000  0.31800000  1.0
  H  H111  1  0.62724000  0.94023000  0.27338000  1.0
  H  H112  1  0.60418000  0.30611000  0.09086000  1.0
  H  H113  1  0.68522000  0.32472000  0.05461000  1.0
  H  H114  1  0.90540000  0.44508000  0.23416000  1.0
  H  H115  1  0.93620000  0.46959000  0.18080000  1.0
  H  H116  1  0.60962000  0.58315000  0.08392000  1.0
  H  H117  1  0.66490000  0.55351000  0.04044000  1.0
  H  H118  1  0.45318000  0.41354000  0.25295000  1.0
  H  H119  1  0.52886000  0.43531000  0.29114000  1.0
  H  H120  1  0.93272000  0.27622000  0.18026000  1.0
  H  H121  1  0.95704000  0.25160000  0.12577000  1.0
  H  H122  1  0.83852000  0.09128000  0.35127000  1.0
  H  H123  1  0.77210000  0.13419000  0.32794000  1.0
  H  H124  1  0.93480000  0.98563000  0.13861000  1.0
  H  H125  1  0.88596000  0.02386000  0.09941000  1.0
  H  H126  1  0.23698000  0.14265000  0.23887000  1.0
  H  H127  1  0.20030000  0.14687000  0.29608000  1.0
  H  H128  1  0.01710000  0.30673000  0.58983000  1.0
  H  H129  1  0.93598000  0.32815000  0.55507000  1.0
  H  H130  1  0.73808000  0.41763000  0.75938000  1.0
  H  H131  1  0.68964000  0.44971000  0.71485000  1.0
  H  H132  1  0.96018000  0.58458000  0.59667000  1.0
  H  H133  1  0.91496000  0.55062000  0.55247000  1.0
  H  H134  1  0.17928000  0.40673000  0.75088000  1.0
  H  H135  1  0.12904000  0.44751000  0.78721000  1.0
  H  H136  1  0.68730000  0.27263000  0.67518000  1.0
  H  H137  1  0.66454000  0.24737000  0.62061000  1.0
  H  H138  1  0.78310000  0.09193000  0.84968000  1.0
  H  H139  1  0.84598000  0.13688000  0.82701000  1.0
  H  H140  1  0.71468000  0.98276000  0.63425000  1.0
  H  H141  1  0.75772000  0.02322000  0.59497000  1.0
  H  H142  1  0.38708000  0.12603000  0.72642000  1.0
  H  H143  1  0.41812000  0.13709000  0.78384000  1.0
  H  H144  1  0.43642000  0.76633000  0.87211000  1.0
  H  H145  1  0.45110000  0.74313000  0.92839000  1.0
  H  H146  1  0.33752000  0.59916000  0.70363000  1.0
  H  H147  1  0.25010000  0.61316000  0.73695000  1.0
  H  H148  1  0.43210000  0.47832000  0.93287000  1.0
  H  H149  1  0.34264000  0.50963000  0.94925000  1.0
  H  H150  1  0.72912000  0.62153000  0.83185000  1.0
  H  H151  1  0.70008000  0.62683000  0.77338000  1.0
  H  H152  1  0.10306000  0.80462000  0.95763000  1.0
  H  H153  1  0.18492000  0.82034000  0.99494000  1.0
  H  H154  1  0.40346000  0.92940000  0.81632000  1.0
  H  H155  1  0.43974000  0.96755000  0.85954000  1.0
  H  H156  1  0.12384000  0.07811000  0.98628000  1.0
  H  H157  1  0.21494000  0.05574000  0.01139000  1.0
  H  H158  1  0.93364000  0.93492000  0.82082000  1.0
  H  H159  1  0.00426000  0.94571000  0.77544000  1.0
  H  H160  1  0.31658000  0.49210000  0.18293000  1.0
  H  H161  1  0.37684000  0.44593000  0.19458000  1.0
  H  H162  1  0.19190000  0.04676000  0.37778000  1.0
  H  H163  1  0.17188000  0.09969000  0.35510000  1.0
  H  H164  1  0.93282000  0.47115000  0.30464000  1.0
  H  H165  1  0.90682000  0.51451000  0.34083000  1.0
  H  H166  1  0.80372000  0.02518000  0.38314000  1.0
  H  H167  1  0.76136000  0.97290000  0.37273000  1.0
  H  H168  1  0.67274000  0.58000000  0.71292000  1.0
  H  H169  1  0.68420000  0.52562000  0.69153000  1.0
  H  H170  1  0.75974000  0.01537000  0.82998000  1.0
  H  H171  1  0.80948000  0.96555000  0.81767000  1.0
  H  H172  1  0.14846000  0.57836000  0.77337000  1.0
  H  H173  1  0.09816000  0.52731000  0.77999000  1.0
  H  H174  1  0.47140000  0.04235000  0.86762000  1.0
  H  H175  1  0.46808000  0.09571000  0.84324000  1.0
  H  H176  1  0.95452000  0.50730000  0.49063000  1.0
  H  H177  1  0.03564000  0.48966000  0.45863000  1.0
  H  H178  1  0.71916000  0.06407000  0.53416000  1.0
  H  H179  1  0.64748000  0.06838000  0.49261000  1.0
  H  H180  1  0.56804000  0.48444000  0.94460000  1.0
  H  H181  1  0.64180000  0.51096000  0.97625000  1.0
  H  H182  1  0.98564000  0.06795000  0.99394000  1.0
  H  H183  1  0.91566000  0.06222000  0.03622000  1.0
  H  H184  1  0.22044000  0.78652000  0.47317000  1.0
  H  H185  1  0.30114000  0.82055000  0.48687000  1.0
  H  H186  1  0.90334000  0.29388000  0.06926000  1.0
  H  H187  1  0.82094000  0.32542000  0.05315000  1.0
  H  H188  1  0.79854000  0.33037000  0.55513000  1.0
  H  H189  1  0.71382000  0.30138000  0.57243000  1.0
  H  H190  1  0.40722000  0.81373000  0.95767000  1.0
  H  H191  1  0.32272000  0.83464000  0.98426000  1.0
  N  N192  1  0.33878000  0.47089000  0.20878000  1.0
  N  N193  1  0.38110000  0.49769000  0.24097000  1.0
  N  N194  1  0.41694000  0.55461000  0.28728000  1.0
  N  N195  1  0.47222000  0.52152000  0.29140000  1.0
  N  N196  1  0.16934000  0.06418000  0.34941000  1.0
  N  N197  1  0.21462000  0.05217000  0.31056000  1.0
  N  N198  1  0.26930000  0.05317000  0.24162000  1.0
  N  N199  1  0.28068000  0.01128000  0.25853000  1.0
  N  N200  1  0.89220000  0.49821000  0.31034000  1.0
  N  N201  1  0.89512000  0.52941000  0.27368000  1.0
  N  N202  1  0.89706000  0.55829000  0.20385000  1.0
  N  N203  1  0.89866000  0.59357000  0.23249000  1.0
  N  N204  1  0.78956000  0.00136000  0.35777000  1.0
  N  N205  1  0.73814000  0.02187000  0.32523000  1.0
  N  N206  1  0.68280000  0.07194000  0.27725000  1.0
  N  N207  1  0.64266000  0.03250000  0.27293000  1.0
  N  N208  1  0.66508000  0.54487000  0.71950000  1.0
  N  N209  1  0.70856000  0.53214000  0.75876000  1.0
  N  N210  1  0.75998000  0.53227000  0.82851000  1.0
  N  N211  1  0.77276000  0.49071000  0.81112000  1.0
  N  N212  1  0.81400000  0.99722000  0.83438000  1.0
  N  N213  1  0.88000000  0.02265000  0.81695000  1.0
  N  N214  1  0.95830000  0.08028000  0.79335000  1.0
  N  N215  1  0.00156000  0.04179000  0.79015000  1.0
  N  N216  1  0.15484000  0.54348000  0.78133000  1.0
  N  N217  1  0.20972000  0.52199000  0.75127000  1.0
  N  N218  1  0.31590000  0.50819000  0.70671000  1.0
  N  N219  1  0.27608000  0.46872000  0.71171000  1.0
  N  N220  1  0.43606000  0.06513000  0.84856000  1.0
  N  N221  1  0.41372000  0.04463000  0.80699000  1.0
  N  N222  1  0.36814000  0.99437000  0.75604000  1.0
  N  N223  1  0.37650000  0.03460000  0.73515000  1.0
  N  N224  1  0.01498000  0.49638000  0.49145000  1.0
  N  N225  1  0.06358000  0.52979000  0.51316000  1.0
  N  N226  1  0.10920000  0.58055000  0.56356000  1.0
  N  N227  1  0.16832000  0.57333000  0.53379000  1.0
  N  N228  1  0.65738000  0.06877000  0.52765000  1.0
  N  N229  1  0.61116000  0.03388000  0.54871000  1.0
  N  N230  1  0.50774000  0.98885000  0.56831000  1.0
  N  N231  1  0.56644000  0.98210000  0.59840000  1.0
  N  N232  1  0.58638000  0.49345000  0.97729000  1.0
  N  N233  1  0.52718000  0.52061000  0.99925000  1.0
  N  N234  1  0.46440000  0.56367000  0.05083000  1.0
  N  N235  1  0.41030000  0.55316000  0.01910000  1.0
  N  N236  1  0.97626000  0.06981000  0.02897000  1.0
  N  N237  1  0.02878000  0.03894000  0.05144000  1.0
  N  N238  1  0.13964000  0.00047000  0.07197000  1.0
  N  N239  1  0.08338000  0.99262000  0.10323000  1.0
  N  N240  1  0.26724000  0.80692000  0.46011000  1.0
  N  N241  1  0.31632000  0.78020000  0.43101000  1.0
  N  N242  1  0.35500000  0.73727000  0.37250000  1.0
  N  N243  1  0.42146000  0.75584000  0.39024000  1.0
  N  N244  1  0.85370000  0.31295000  0.08088000  1.0
  N  N245  1  0.80430000  0.28520000  0.10887000  1.0
  N  N246  1  0.76508000  0.24080000  0.16612000  1.0
  N  N247  1  0.69892000  0.26039000  0.14913000  1.0
  N  N248  1  0.76746000  0.31721000  0.58317000  1.0
  N  N249  1  0.81654000  0.28550000  0.60693000  1.0
  N  N250  1  0.85630000  0.23443000  0.65838000  1.0
  N  N251  1  0.92256000  0.25488000  0.64255000  1.0
  N  N252  1  0.35142000  0.80494000  0.97223000  1.0
  N  N253  1  0.30248000  0.78188000  0.94015000  1.0
  N  N254  1  0.26290000  0.73865000  0.88211000  1.0
  N  N255  1  0.19730000  0.75945000  0.89844000  1.0
  S  S256  1  0.25686000  0.65776000  0.31275000  1.0
  S  S257  1  0.05320000  0.67797000  0.35032000  1.0
  S  S258  1  0.20296000  0.63713000  0.42843000  1.0
  S  S259  1  0.09666000  0.58391000  0.27656000  1.0
  S  S260  1  0.24482000  0.54208000  0.35457000  1.0
  S  S261  1  0.04208000  0.56311000  0.39216000  1.0
  S  S262  1  0.34098000  0.88881000  0.38925000  1.0
  S  S263  1  0.55592000  0.88008000  0.37766000  1.0
  S  S264  1  0.46900000  0.92444000  0.47992000  1.0
  S  S265  1  0.44672000  0.96420000  0.31368000  1.0
  S  S266  1  0.36016000  0.00864000  0.41537000  1.0
  S  S267  1  0.57610000  0.99960000  0.40513000  1.0
  S  S268  1  0.78586000  0.39396000  0.15024000  1.0
  S  S269  1  0.57644000  0.37881000  0.17565000  1.0
  S  S270  1  0.63490000  0.43356000  0.07200000  1.0
  S  S271  1  0.69366000  0.46041000  0.23871000  1.0
  S  S272  1  0.75316000  0.51418000  0.13521000  1.0
  S  S273  1  0.54232000  0.49956000  0.16043000  1.0
  S  S274  1  0.85150000  0.17654000  0.23924000  1.0
  S  S275  1  0.05984000  0.18980000  0.20994000  1.0
  S  S276  1  0.92444000  0.13439000  0.13246000  1.0
  S  S277  1  0.00242000  0.11082000  0.29724000  1.0
  S  S278  1  0.86724000  0.05527000  0.21978000  1.0
  S  S279  1  0.07626000  0.06892000  0.19097000  1.0
  S  S280  1  0.84220000  0.38315000  0.66554000  1.0
  S  S281  1  0.05830000  0.37819000  0.67165000  1.0
  S  S282  1  0.96216000  0.43577000  0.57912000  1.0
  S  S283  1  0.94716000  0.44801000  0.74994000  1.0
  S  S284  1  0.85118000  0.50567000  0.65732000  1.0
  S  S285  1  0.06744000  0.50113000  0.66343000  1.0
  S  S286  1  0.76910000  0.17604000  0.73642000  1.0
  S  S287  1  0.56186000  0.18255000  0.70246000  1.0
  S  S288  1  0.70818000  0.13114000  0.62841000  1.0
  S  S289  1  0.62140000  0.10557000  0.79122000  1.0
  S  S290  1  0.76780000  0.05439000  0.71717000  1.0
  S  S291  1  0.55948000  0.06120000  0.68391000  1.0
  S  S292  1  0.34952000  0.66693000  0.81413000  1.0
  S  S293  1  0.55468000  0.67479000  0.85072000  1.0
  S  S294  1  0.40472000  0.62745000  0.92497000  1.0
  S  S295  1  0.49930000  0.59328000  0.76513000  1.0
  S  S296  1  0.34960000  0.54619000  0.83963000  1.0
  S  S297  1  0.55662000  0.55483000  0.87555000  1.0
  S  S298  1  0.28456000  0.88898000  0.89514000  1.0
  S  S299  1  0.06972000  0.88503000  0.88252000  1.0
  S  S300  1  0.15816000  0.93074000  0.98390000  1.0
  S  S301  1  0.18648000  0.96421000  0.81630000  1.0
  S  S302  1  0.27470000  0.00989000  0.91713000  1.0
  S  S303  1  0.05850000  0.00576000  0.90596000  1.0
