# generated using pymatgen
data_CoH40C48N8Cl2(OF4)4
_symmetry_space_group_name_H-M   'P 1'
_cell_length_a   8.52810000
_cell_length_b   18.69459793
_cell_length_c   18.79678620
_cell_angle_alpha   104.51253267
_cell_angle_beta   94.12003177
_cell_angle_gamma   94.02449776
_symmetry_Int_Tables_number   1
_chemical_formula_structural   CoH40C48N8Cl2(OF4)4
_chemical_formula_sum   'Co1 H40 C48 N8 Cl2 O4 F16'
_cell_volume   2881.55156736
_cell_formula_units_Z   1
loop_
 _symmetry_equiv_pos_site_id
 _symmetry_equiv_pos_as_xyz
  1  'x, y, z'
loop_
 _atom_site_type_symbol
 _atom_site_label
 _atom_site_symmetry_multiplicity
 _atom_site_fract_x
 _atom_site_fract_y
 _atom_site_fract_z
 _atom_site_occupancy
  C  C0  1  0.36628000  0.36920000  0.17172000  1.0
  C  C1  1  0.46024000  0.31132000  0.17472000  1.0
  C  C2  1  0.39026000  0.23886000  0.16060000  1.0
  C  C3  1  0.13860500  0.27930000  0.13894500  1.0
  C  C4  1  0.20373000  0.35236000  0.15314000  1.0
  C  C5  1  0.41904000  0.09474000  0.34306000  1.0
  C  C6  1  0.34688000  0.15992000  0.34204000  1.0
  C  C7  1  0.26356000  0.16616000  0.27780000  1.0
  C  C8  1  0.32758000  0.04780000  0.21338000  1.0
  C  C9  1  0.41072500  0.03900000  0.27680500  1.0
  C  C10  1  0.95170000  0.89896000  0.02734000  1.0
  C  C11  1  0.88050000  0.87720000  0.08458000  1.0
  C  C12  1  0.89034000  0.92834000  0.15380000  1.0
  C  C13  1  0.97180000  0.99778000  0.16490000  1.0
  C  C14  1  0.85720000  0.10708000  0.02152000  1.0
  C  C15  1  0.76868500  0.11776000  0.96028500  1.0
  C  C16  1  0.83988000  0.15598000  0.91394000  1.0
  C  C17  1  0.00062000  0.18058000  0.92956000  1.0
  C  C18  1  0.08608000  0.16632000  0.98956000  1.0
  C  C19  1  0.55020000  0.54816000  0.12576000  1.0
  C  C20  1  0.73415000  0.55068000  0.13675000  1.0
  C  C21  1  0.76790000  0.67318000  0.10172000  1.0
  C  C22  1  0.58452000  0.66710000  0.08530000  1.0
  C  C23  1  0.81482000  0.63112000  0.16194000  1.0
  C  C24  1  0.47988000  0.16584000  0.62740000  1.0
  C  C25  1  0.51308000  0.10520000  0.55712000  1.0
  C  C26  1  0.54470000  0.14814000  0.69916000  1.0
  C  C27  1  0.75858000  0.07888000  0.63274000  1.0
  C  C28  1  0.69470000  0.09718000  0.56100000  1.0
  C  C29  1  0.72666000  0.14038000  0.70264000  1.0
  C  C30  1  0.43858000  0.44822000  0.18612000  1.0
  C  C31  1  0.47382000  0.46638000  0.11252000  1.0
  C  C32  1  0.74680000  0.17156000  0.84856000  1.0
  C  C33  1  0.78506000  0.11840000  0.77502000  1.0
  C  C34  1  0.78248000  0.80318000  0.07094000  1.0
  C  C35  1  0.83926000  0.75650000  0.12416000  1.0
  C  C36  1  0.51026000  0.08390000  0.41180000  1.0
  C  C37  1  0.45574000  0.12934000  0.48580000  1.0
  C  C38  1  0.99616000  0.62748000  0.17320000  1.0
  C  C39  1  0.06952000  0.63558000  0.24134000  1.0
  C  C40  1  0.25126000  0.58932000  0.98518000  1.0
  C  C41  1  0.93316000  0.06498000  0.62826000  1.0
  C  C42  1  0.97708000  0.99582000  0.62106000  1.0
  C  C43  1  0.30491000  0.17916000  0.63112000  1.0
  C  C44  1  0.26006500  0.24804000  0.63726500  1.0
  C  C45  1  0.02752000  0.97032000  0.04008000  1.0
  C  C46  1  0.50254000  0.58646000  0.06344000  1.0
  C  C47  1  0.32190000  0.59216000  0.05266000  1.0
  Cl  Cl48  1  0.93440000  0.16406000  0.19242000  1.0
  Cl  Cl49  1  0.33200000  0.07866000  0.05754000  1.0
  Co  Co50  1  0.13376000  0.12108000  0.12520000  1.0
  F  F51  1  0.57582000  0.45828000  0.23294000  1.0
  F  F52  1  0.57356000  0.41652000  0.07660000  1.0
  F  F53  1  0.33384000  0.49606000  0.22066000  1.0
  F  F54  1  0.33330000  0.45472000  0.06778000  1.0
  F  F55  1  0.78600000  0.24470000  0.84874000  1.0
  F  F56  1  0.94726000  0.11574000  0.77684000  1.0
  F  F57  1  0.58676000  0.16264000  0.85644000  1.0
  F  F58  1  0.71862000  0.04780000  0.77238000  1.0
  F  F59  1  0.00228000  0.75852000  0.12616000  1.0
  F  F60  1  0.62872000  0.81940000  0.08224000  1.0
  F  F61  1  0.80092000  0.78992000  0.19436000  1.0
  F  F62  1  0.66764000  0.10504000  0.40784000  1.0
  F  F63  1  0.51026000  0.20312000  0.49514000  1.0
  F  F64  1  0.49628000  0.00904000  0.40928000  1.0
  F  F65  1  0.29196000  0.12368000  0.47924000  1.0
  F  F66  1  0.78570000  0.76228000  0.99854000  1.0
  H  H67  1  0.58680000  0.32180000  0.18804000  1.0
  H  H68  1  0.46488000  0.19562000  0.16530000  1.0
  H  H69  1  0.01326000  0.26800000  0.12322000  1.0
  H  H70  1  0.12736000  0.39532000  0.14892000  1.0
  H  H71  1  0.35194000  0.20630000  0.38992000  1.0
  H  H72  1  0.20858000  0.21674000  0.27924000  1.0
  H  H73  1  0.32062000  0.00310000  0.16376000  1.0
  H  H74  1  0.46778000  0.98850000  0.27384000  1.0
  H  H75  1  0.07468000  0.98672000  0.99416000  1.0
  H  H76  1  0.94524000  0.86232000  0.97240000  1.0
  H  H77  1  0.83300000  0.91612000  0.19932000  1.0
  H  H78  1  0.98110500  0.03462000  0.21964500  1.0
  H  H79  1  0.79866000  0.07890000  0.05728000  1.0
  H  H80  1  0.64522000  0.09706000  0.95020000  1.0
  H  H81  1  0.06017000  0.21072000  0.89548000  1.0
  H  H82  1  0.20970000  0.18610000  0.00008000  1.0
  H  H83  1  0.57898000  0.57622000  0.96424000  1.0
  H  H84  1  0.74556000  0.63480000  0.26152000  1.0
  H  H85  1  0.50960000  0.58204000  0.17752000  1.0
  H  H86  1  0.76976000  0.52064000  0.17844000  1.0
  H  H87  1  0.78062000  0.52114000  0.08456000  1.0
  H  H88  1  0.81658000  0.64546000  0.04948000  1.0
  H  H89  1  0.53296000  0.70022000  0.13446000  1.0
  H  H90  1  0.47932000  0.99518000  0.53054000  1.0
  H  H91  1  0.75652000  0.25042000  0.72382000  1.0
  H  H92  1  0.54696000  0.21868000  0.62592000  1.0
  H  H93  1  0.51860000  0.19438000  0.74550000  1.0
  H  H94  1  0.48032000  0.09642000  0.70522000  1.0
  H  H95  1  0.69076000  0.02644000  0.63500000  1.0
  H  H96  1  0.72140500  0.05170500  0.51398000  1.0
  H  H97  1  0.75920000  0.14918000  0.55570000  1.0
  H  H98  1  0.19558000  0.63192000  0.24982000  1.0
  H  H99  1  0.00732000  0.64602000  0.29062000  1.0
  H  H100  1  0.12626000  0.59552000  0.97678000  1.0
  H  H101  1  0.31584000  0.58140000  0.93664000  1.0
  H  H102  1  0.09932000  0.98400000  0.61692000  1.0
  H  H103  1  0.89110000  0.94952000  0.61902000  1.0
  H  H104  1  0.13748000  0.25956000  0.64068000  1.0
  H  H105  1  0.34552000  0.29446000  0.63910000  1.0
  H  H106  1  0.55362000  0.69156000  0.03870000  1.0
  N  N107  1  0.23084000  0.22316000  0.14308000  1.0
  N  N108  1  0.25366000  0.11056000  0.21426000  1.0
  N  N109  1  0.03616000  0.01934000  0.10818000  1.0
  N  N110  1  0.01404000  0.13162000  0.03610000  1.0
  N  N111  1  0.23202000  0.60700000  0.11558000  1.0
  N  N112  1  0.08560000  0.61120000  0.11016000  1.0
  N  N113  1  0.19160000  0.11852000  0.62952000  1.0
  N  N114  1  0.04682000  0.12548000  0.62990000  1.0
  O  O115  1  0.55518000  0.54394000  0.99748000  1.0
  O  O116  1  0.75790000  0.66884000  0.22890000  1.0
  O  O117  1  0.42680000  0.03798000  0.55790000  1.0
  O  O118  1  0.81274000  0.20722000  0.70036000  1.0
