# generated using pymatgen
data_Co4H16C80N40O9F8
_symmetry_space_group_name_H-M   'P 1'
_cell_length_a   11.95225000
_cell_length_b   38.05900000
_cell_length_c   38.08460000
_cell_angle_alpha   91.70000000
_cell_angle_beta   90.01500000
_cell_angle_gamma   90.01500000
_symmetry_Int_Tables_number   1
_chemical_formula_structural   Co4H16C80N40O9F8
_chemical_formula_sum   'Co4 H16 C80 N40 O9 F8'
_cell_volume   17316.70334470
_cell_formula_units_Z   1
loop_
 _symmetry_equiv_pos_site_id
 _symmetry_equiv_pos_as_xyz
  1  'x, y, z'
loop_
 _atom_site_type_symbol
 _atom_site_label
 _atom_site_symmetry_multiplicity
 _atom_site_fract_x
 _atom_site_fract_y
 _atom_site_fract_z
 _atom_site_occupancy
  C  C0  1  0.02929000  0.98716000  0.06603500  1.0
  C  C1  1  0.02928000  0.06055000  0.15342000  1.0
  C  C2  1  0.02550000  0.05562000  0.00173000  1.0
  C  C3  1  0.03242000  0.13789500  0.06969000  1.0
  C  C4  1  0.05539000  0.04142500  0.66851000  1.0
  C  C5  1  0.15370000  0.04444000  0.64992000  1.0
  C  C6  1  0.25390000  0.05080500  0.66639000  1.0
  C  C7  1  0.95600000  0.04215500  0.65013000  1.0
  C  C8  1  0.85577000  0.04634500  0.66712000  1.0
  C  C9  1  0.78325000  0.04508000  0.57749000  1.0
  C  C10  1  0.83443000  0.04072000  0.54497500  1.0
  C  C11  1  0.77844000  0.03698000  0.51292000  1.0
  C  C12  1  0.83591000  0.04905000  0.60974500  1.0
  C  C13  1  0.78111000  0.05361500  0.64185500  1.0
  C  C14  1  0.95448000  0.04624000  0.50429000  1.0
  C  C15  1  0.15218000  0.04396000  0.50404000  1.0
  C  C16  1  0.05350000  0.04734500  0.48578000  1.0
  C  C17  1  0.85364000  0.04314000  0.48748000  1.0
  C  C18  1  0.25200000  0.03803000  0.48722000  1.0
  C  C19  1  0.32322000  0.04326000  0.57671000  1.0
  C  C20  1  0.27196000  0.04972000  0.60880000  1.0
  C  C21  1  0.32789000  0.05643000  0.64042000  1.0
  C  C22  1  0.27106000  0.03740000  0.54471000  1.0
  C  C23  1  0.32626000  0.03139000  0.51286000  1.0
  C  C24  1  0.05252000  0.65358000  0.05013500  1.0
  C  C25  1  0.15208000  0.63521000  0.04877500  1.0
  C  C26  1  0.25360000  0.65202500  0.04745500  1.0
  C  C27  1  0.95328000  0.63501000  0.05064500  1.0
  C  C28  1  0.85124000  0.65158000  0.05185000  1.0
  C  C29  1  0.78254000  0.56158000  0.04987500  1.0
  C  C30  1  0.83344000  0.52930000  0.04835000  1.0
  C  C31  1  0.77586000  0.49755000  0.04635500  1.0
  C  C32  1  0.83264000  0.59409000  0.05101000  1.0
  C  C33  1  0.77428000  0.62570000  0.05232000  1.0
  C  C34  1  0.95489000  0.48878000  0.04908000  1.0
  C  C35  1  0.15364000  0.48910500  0.05118000  1.0
  C  C36  1  0.05434000  0.47053000  0.05082000  1.0
  C  C37  1  0.85336000  0.47190000  0.04701000  1.0
  C  C38  1  0.25558000  0.47250500  0.05160000  1.0
  C  C39  1  0.32486000  0.56238000  0.04934000  1.0
  C  C40  1  0.27382000  0.59468000  0.04870000  1.0
  C  C41  1  0.33126000  0.62643000  0.04774500  1.0
  C  C42  1  0.27456000  0.52991000  0.04998500  1.0
  C  C43  1  0.33270000  0.49827000  0.05059000  1.0
  C  C44  1  0.05518000  0.05303500  0.26435500  1.0
  C  C45  1  0.05386000  0.05794500  0.19227000  1.0
  C  C46  1  0.05416000  0.05055500  0.30308000  1.0
  C  C47  1  0.05356000  0.04917500  0.33534000  1.0
  C  C48  1  0.05284000  0.04845500  0.37408500  1.0
  C  C49  1  0.05330000  0.04759500  0.44602000  1.0
  C  C50  1  0.05840000  0.87562000  0.06337500  1.0
  C  C51  1  0.05488000  0.94813000  0.06547000  1.0
  C  C52  1  0.05768000  0.83664000  0.06188000  1.0
  C  C53  1  0.05646000  0.80425500  0.05980500  1.0
  C  C54  1  0.05497000  0.76540500  0.05716000  1.0
  C  C55  1  0.05260000  0.69336000  0.05247000  1.0
  C  C56  1  0.05492000  0.05319000  0.89044000  1.0
  C  C57  1  0.05221000  0.05518500  0.96288000  1.0
  C  C58  1  0.05447000  0.05204000  0.85151000  1.0
  C  C59  1  0.05411000  0.05080500  0.81914000  1.0
  C  C60  1  0.05372000  0.04853000  0.78032000  1.0
  C  C61  1  0.05556000  0.04391500  0.70832000  1.0
  C  C62  1  0.05833000  0.24928500  0.06334000  1.0
  C  C63  1  0.05673000  0.17700000  0.06771500  1.0
  C  C64  1  0.05682000  0.28810000  0.06076500  1.0
  C  C65  1  0.05562000  0.32032500  0.05832000  1.0
  C  C66  1  0.05430000  0.35905000  0.05614000  1.0
  C  C67  1  0.05441000  0.43088000  0.05255000  1.0
  C  C68  1  0.49576000  0.06838000  0.55682000  1.0
  C  C69  1  0.60846000  0.06986000  0.55824000  1.0
  C  C70  1  0.66510000  0.04499000  0.57786000  1.0
  C  C71  1  0.60971000  0.01964500  0.59733500  1.0
  C  C72  1  0.49679000  0.01919000  0.59708000  1.0
  C  C73  1  0.44078000  0.04334000  0.57657000  1.0
  C  C74  1  0.49650000  0.55430000  0.08074000  1.0
  C  C75  1  0.61012000  0.55311000  0.08061000  1.0
  C  C76  1  0.66548000  0.56135000  0.04976000  1.0
  C  C77  1  0.61131000  0.56969000  0.01876000  1.0
  C  C78  1  0.49778000  0.57030000  0.01868000  1.0
  C  C79  1  0.44218000  0.56256000  0.04966000  1.0
  Co  Co80  1  0.85471000  0.03811000  0.05183000  1.0
  Co  Co81  1  0.10092000  0.06222000  0.07749000  1.0
  Co  Co82  1  0.05369000  0.04392500  0.57708000  1.0
  Co  Co83  1  0.05358000  0.56202000  0.04982500  1.0
  F  F84  1  0.44076000  0.09022000  0.53508000  1.0
  F  F85  1  0.66244000  0.09367000  0.53841000  1.0
  F  F86  1  0.66435000  0.99688000  0.61819000  1.0
  F  F87  1  0.44214000  0.99690000  0.61846500  1.0
  F  F88  1  0.43890000  0.54601000  0.11011000  1.0
  F  F89  1  0.66634000  0.54299000  0.10962500  1.0
  F  F90  1  0.66903000  0.57816000  0.98947500  1.0
  F  F91  1  0.44177000  0.57983000  0.98942000  1.0
  H  H92  1  0.69102000  0.03210000  0.50782000  1.0
  H  H93  1  0.69446000  0.05975500  0.64695000  1.0
  H  H94  1  0.41499000  0.06259500  0.64480500  1.0
  H  H95  1  0.41322000  0.02527000  0.50820000  1.0
  H  H96  1  0.27118000  0.05181500  0.69425000  1.0
  H  H97  1  0.83941000  0.04574500  0.69500000  1.0
  H  H98  1  0.83684000  0.04420500  0.45965000  1.0
  H  H99  1  0.26884000  0.03797000  0.45934000  1.0
  H  H100  1  0.68664000  0.49318000  0.04491000  1.0
  H  H101  1  0.68492000  0.62986000  0.05309000  1.0
  H  H102  1  0.42044000  0.63093500  0.04720500  1.0
  H  H103  1  0.42198000  0.49395000  0.05039000  1.0
  H  H104  1  0.27011000  0.67987000  0.04642500  1.0
  H  H105  1  0.83407000  0.67944000  0.05218000  1.0
  H  H106  1  0.83681000  0.44400000  0.04599000  1.0
  H  H107  1  0.27264000  0.44466000  0.05210000  1.0
  N  N108  1  0.94337000  0.04439000  0.53992500  1.0
  N  N109  1  0.16409000  0.04438000  0.61420000  1.0
  N  N110  1  0.94433000  0.04392000  0.61450000  1.0
  N  N111  1  0.16324000  0.04315000  0.53969000  1.0
  N  N112  1  0.94325000  0.52449000  0.04954500  1.0
  N  N113  1  0.16388000  0.59952000  0.04927000  1.0
  N  N114  1  0.94240000  0.59925000  0.05009000  1.0
  N  N115  1  0.16471000  0.52480500  0.05017000  1.0
  N  N116  1  0.05444000  0.02371000  0.24297500  1.0
  N  N117  1  0.05522000  0.08484000  0.24887500  1.0
  N  N118  1  0.05362000  0.08722500  0.21379500  1.0
  N  N119  1  0.05277000  0.02612000  0.20788500  1.0
  N  N120  1  0.05213000  0.07886500  0.39382000  1.0
  N  N121  1  0.05229000  0.07845000  0.42895000  1.0
  N  N122  1  0.05385000  0.01709500  0.42637000  1.0
  N  N123  1  0.05365000  0.01752000  0.39120000  1.0
  N  N124  1  0.06457000  0.89426500  0.09449000  1.0
  N  N125  1  0.05073000  0.89407500  0.03345000  1.0
  N  N126  1  0.04785000  0.92929000  0.03453500  1.0
  N  N127  1  0.06229000  0.92961500  0.09555500  1.0
  N  N128  1  0.04991000  0.74803500  0.02537000  1.0
  N  N129  1  0.04879000  0.71282500  0.02307500  1.0
  N  N130  1  0.05782000  0.71068000  0.08419500  1.0
  N  N131  1  0.05890000  0.74585000  0.08648500  1.0
  N  N132  1  0.05333000  0.02309500  0.90885000  1.0
  N  N133  1  0.05495000  0.08433500  0.90908000  1.0
  N  N134  1  0.05271000  0.08532500  0.94436000  1.0
  N  N135  1  0.05086000  0.02410500  0.94407000  1.0
  N  N136  1  0.05434000  0.07799000  0.76086000  1.0
  N  N137  1  0.05515000  0.07573000  0.72568000  1.0
  N  N138  1  0.05441000  0.01450000  0.72773000  1.0
  N  N139  1  0.05364000  0.01677000  0.76289000  1.0
  N  N140  1  0.06399000  0.23350500  0.09499500  1.0
  N  N141  1  0.05217000  0.22810000  0.03400000  1.0
  N  N142  1  0.05027000  0.19299500  0.03618500  1.0
  N  N143  1  0.06255000  0.19830500  0.09715500  1.0
  N  N144  1  0.04941000  0.37501500  0.02461000  1.0
  N  N145  1  0.04936000  0.41013500  0.02285500  1.0
  N  N146  1  0.05905000  0.41497500  0.08402000  1.0
  N  N147  1  0.05899000  0.37989500  0.08577000  1.0
  O  O148  1  0.10995000  0.11375000  0.07777000  1.0
  O  O149  1  0.10964000  0.06296500  0.12886000  1.0
  O  O150  1  0.92098000  0.04805000  0.00922000  1.0
  O  O151  1  0.10410000  0.06112500  0.02651000  1.0
  O  O152  1  0.95172000  0.06327000  0.07837000  1.0
  O  O153  1  0.93137000  0.12763000  0.06082500  1.0
  O  O154  1  0.92378000  0.05977000  0.14409000  1.0
  O  O155  1  0.10244000  0.01141500  0.07790500  1.0
  O  O156  1  0.93098000  0.99544000  0.05306000  1.0
