# generated using pymatgen
data_CuH16C32N4(ClF4)2
_symmetry_space_group_name_H-M   'P 1'
_cell_length_a   20.53600000
_cell_length_b   23.04390000
_cell_length_c   46.41870000
_cell_angle_alpha   100.27700000
_cell_angle_beta   90.00000000
_cell_angle_gamma   90.00000000
_symmetry_Int_Tables_number   1
_chemical_formula_structural   CuH16C32N4(ClF4)2
_chemical_formula_sum   'Cu8 H128 C256 N32 Cl16 F64'
_cell_volume   21614.28200819
_cell_formula_units_Z   8
loop_
 _symmetry_equiv_pos_site_id
 _symmetry_equiv_pos_as_xyz
  1  'x, y, z'
loop_
 _atom_site_type_symbol
 _atom_site_label
 _atom_site_symmetry_multiplicity
 _atom_site_fract_x
 _atom_site_fract_y
 _atom_site_fract_z
 _atom_site_occupancy
  C  C0  1  0.55802000  0.00270000  0.56247000  1.0
  C  C1  1  0.60676000  0.04218000  0.57462000  1.0
  C  C2  1  0.63686000  0.03516000  0.60079000  1.0
  C  C3  1  0.57048000  0.95254000  0.60378000  1.0
  C  C4  1  0.53940000  0.95782000  0.57756000  1.0
  C  C5  1  0.71700000  0.15232000  0.71730000  1.0
  C  C6  1  0.68308000  0.15476000  0.69137000  1.0
  C  C7  1  0.66924000  0.10262000  0.67203000  1.0
  C  C8  1  0.71780000  0.04624000  0.70420000  1.0
  C  C9  1  0.73254000  0.09726000  0.72411000  1.0
  C  C10  1  0.64350000  0.87876000  0.68470000  1.0
  C  C11  1  0.65884000  0.84030000  0.70389000  1.0
  C  C12  1  0.72398000  0.83224000  0.71133000  1.0
  C  C13  1  0.77246000  0.86102000  0.69802000  1.0
  C  C14  1  0.75512000  0.89894000  0.67895000  1.0
  C  C15  1  0.73980000  0.92956000  0.59050000  1.0
  C  C16  1  0.74926000  0.89046000  0.56433000  1.0
  C  C17  1  0.72288000  0.83390000  0.56086000  1.0
  C  C18  1  0.69006000  0.81668000  0.58433000  1.0
  C  C19  1  0.68214000  0.85700000  0.61033000  1.0
  C  C20  1  0.56236000  0.51660000  0.44708000  1.0
  C  C21  1  0.61118000  0.47776000  0.43441000  1.0
  C  C22  1  0.63964000  0.48526000  0.40794000  1.0
  C  C23  1  0.57138000  0.56704000  0.40572000  1.0
  C  C24  1  0.54200000  0.56130000  0.43223000  1.0
  C  C25  1  0.71526000  0.36852000  0.29116000  1.0
  C  C26  1  0.68114000  0.36626000  0.31705000  1.0
  C  C27  1  0.66712000  0.41854000  0.33627000  1.0
  C  C28  1  0.71560000  0.47464000  0.30394000  1.0
  C  C29  1  0.73054000  0.42350000  0.28417000  1.0
  C  C30  1  0.64180000  0.64042000  0.32246000  1.0
  C  C31  1  0.65742000  0.67880000  0.30327000  1.0
  C  C32  1  0.72274000  0.68806000  0.29659000  1.0
  C  C33  1  0.77106000  0.66018000  0.31045000  1.0
  C  C34  1  0.75342000  0.62224000  0.32947000  1.0
  C  C35  1  0.74018000  0.59472000  0.41688000  1.0
  C  C36  1  0.75004000  0.63492000  0.44265000  1.0
  C  C37  1  0.72178000  0.69070000  0.44595000  1.0
  C  C38  1  0.68654000  0.70612000  0.42267000  1.0
  C  C39  1  0.67840000  0.66480000  0.39704000  1.0
  C  C40  1  0.45226000  0.01874000  0.44814000  1.0
  C  C41  1  0.40414000  0.97944000  0.43519000  1.0
  C  C42  1  0.37632000  0.98662000  0.40855000  1.0
  C  C43  1  0.44376000  0.06912000  0.40673000  1.0
  C  C44  1  0.47250000  0.06368000  0.43342000  1.0
  C  C45  1  0.30748000  0.86802000  0.29138000  1.0
  C  C46  1  0.34062000  0.86664000  0.31761000  1.0
  C  C47  1  0.35300000  0.91926000  0.33683000  1.0
  C  C48  1  0.30466000  0.97418000  0.30395000  1.0
  C  C49  1  0.29142000  0.92264000  0.28413000  1.0
  C  C50  1  0.37428000  0.14154000  0.32284000  1.0
  C  C51  1  0.35850000  0.17974000  0.30358000  1.0
  C  C52  1  0.29322000  0.18790000  0.29642000  1.0
  C  C53  1  0.24506000  0.15916000  0.30993000  1.0
  C  C54  1  0.26282000  0.12142000  0.32903000  1.0
  C  C55  1  0.27432000  0.09468000  0.41662000  1.0
  C  C56  1  0.26398000  0.13456000  0.44246000  1.0
  C  C57  1  0.29210000  0.19046000  0.44603000  1.0
  C  C58  1  0.32732000  0.20638000  0.42288000  1.0
  C  C59  1  0.33602000  0.16536000  0.39718000  1.0
  C  C60  1  0.45714000  0.50010000  0.56145000  1.0
  C  C61  1  0.40888000  0.53974000  0.57396000  1.0
  C  C62  1  0.37968000  0.53280000  0.60034000  1.0
  C  C63  1  0.44590000  0.44982000  0.60279000  1.0
  C  C64  1  0.47606000  0.45504000  0.57636000  1.0
  C  C65  1  0.30526000  0.65156000  0.71700000  1.0
  C  C66  1  0.33864000  0.65324000  0.69087000  1.0
  C  C67  1  0.35166000  0.60074000  0.67166000  1.0
  C  C68  1  0.30338000  0.54542000  0.70437000  1.0
  C  C69  1  0.28952000  0.59682000  0.72418000  1.0
  C  C70  1  0.37468000  0.37692000  0.68479000  1.0
  C  C71  1  0.35932000  0.33868000  0.70409000  1.0
  C  C72  1  0.29428000  0.33122000  0.71183000  1.0
  C  C73  1  0.24584000  0.36054000  0.69878000  1.0
  C  C74  1  0.26320000  0.39826000  0.67961000  1.0
  C  C75  1  0.27600000  0.42756000  0.59112000  1.0
  C  C76  1  0.26568000  0.38840000  0.56503000  1.0
  C  C77  1  0.29210000  0.33184000  0.56140000  1.0
  C  C78  1  0.32566000  0.31462000  0.58469000  1.0
  C  C79  1  0.33444000  0.35498000  0.61061000  1.0
  C  C80  1  0.06288000  0.50642000  0.06169000  1.0
  C  C81  1  0.11332000  0.54420000  0.07359000  1.0
  C  C82  1  0.14252000  0.53690000  0.09991000  1.0
  C  C83  1  0.07240000  0.45700000  0.10339000  1.0
  C  C84  1  0.04186000  0.46286000  0.07713000  1.0
  C  C85  1  0.22226000  0.65496000  0.21607000  1.0
  C  C86  1  0.18852000  0.65726000  0.19009000  1.0
  C  C87  1  0.17368000  0.60498000  0.17104000  1.0
  C  C88  1  0.22112000  0.54878000  0.20359000  1.0
  C  C89  1  0.23682000  0.59994000  0.22321000  1.0
  C  C90  1  0.14416000  0.38264000  0.18541000  1.0
  C  C91  1  0.15918000  0.34422000  0.20467000  1.0
  C  C92  1  0.22430000  0.33496000  0.21168000  1.0
  C  C93  1  0.27302000  0.36260000  0.19796000  1.0
  C  C94  1  0.25602000  0.40048000  0.17882000  1.0
  C  C95  1  0.24160000  0.42768000  0.09067000  1.0
  C  C96  1  0.25086000  0.38724000  0.06493000  1.0
  C  C97  1  0.22262000  0.33146000  0.06191000  1.0
  C  C98  1  0.18772000  0.31646000  0.08538000  1.0
  C  C99  1  0.18004000  0.35808000  0.11094000  1.0
  C  C100  1  0.06290000  0.01566000  0.94700000  1.0
  C  C101  1  0.11256000  0.97702000  0.93508000  1.0
  C  C102  1  0.14182000  0.98364000  0.90866000  1.0
  C  C103  1  0.07302000  0.06440000  0.90510000  1.0
  C  C104  1  0.04248000  0.05924000  0.93146000  1.0
  C  C105  1  0.22036000  0.86460000  0.79240000  1.0
  C  C106  1  0.18686000  0.86260000  0.81847000  1.0
  C  C107  1  0.17276000  0.91498000  0.83758000  1.0
  C  C108  1  0.22036000  0.97078000  0.80490000  1.0
  C  C109  1  0.23534000  0.91950000  0.78522000  1.0
  C  C110  1  0.14598000  0.13870000  0.82393000  1.0
  C  C111  1  0.16112000  0.17706000  0.80466000  1.0
  C  C112  1  0.22618000  0.18510000  0.79710000  1.0
  C  C113  1  0.27478000  0.15634000  0.81035000  1.0
  C  C114  1  0.25762000  0.11856000  0.82952000  1.0
  C  C115  1  0.24296000  0.09006000  0.91816000  1.0
  C  C116  1  0.25196000  0.12962000  0.94423000  1.0
  C  C117  1  0.22418000  0.18562000  0.94761000  1.0
  C  C118  1  0.19038000  0.20186000  0.92415000  1.0
  C  C119  1  0.18292000  0.16114000  0.89826000  1.0
  C  C120  1  0.95304000  0.51896000  0.94769000  1.0
  C  C121  1  0.90340000  0.48026000  0.93579000  1.0
  C  C122  1  0.87428000  0.48666000  0.90930000  1.0
  C  C123  1  0.94286000  0.56758000  0.90574000  1.0
  C  C124  1  0.97334000  0.56256000  0.93213000  1.0
  C  C125  1  0.79802000  0.36666000  0.79271000  1.0
  C  C126  1  0.83110000  0.36478000  0.81890000  1.0
  C  C127  1  0.84460000  0.41728000  0.83805000  1.0
  C  C128  1  0.79754000  0.47282000  0.80512000  1.0
  C  C129  1  0.78308000  0.42146000  0.78542000  1.0
  C  C130  1  0.87124000  0.64054000  0.82404000  1.0
  C  C131  1  0.85632000  0.67864000  0.80461000  1.0
  C  C132  1  0.79136000  0.68666000  0.79692000  1.0
  C  C133  1  0.74256000  0.65812000  0.81017000  1.0
  C  C134  1  0.75948000  0.62054000  0.82947000  1.0
  C  C135  1  0.77232000  0.59258000  0.91810000  1.0
  C  C136  1  0.76280000  0.63226000  0.94408000  1.0
  C  C137  1  0.79050000  0.68828000  0.94748000  1.0
  C  C138  1  0.82460000  0.70450000  0.92409000  1.0
  C  C139  1  0.83258000  0.66366000  0.89829000  1.0
  C  C140  1  0.95462000  0.00412000  0.06140000  1.0
  C  C141  1  0.90512000  0.04268000  0.07360000  1.0
  C  C142  1  0.87644000  0.03586000  0.10011000  1.0
  C  C143  1  0.94522000  0.95480000  0.10313000  1.0
  C  C144  1  0.97524000  0.96022000  0.07670000  1.0
  C  C145  1  0.79994000  0.15422000  0.21679000  1.0
  C  C146  1  0.83366000  0.15636000  0.19079000  1.0
  C  C147  1  0.84768000  0.10402000  0.17163000  1.0
  C  C148  1  0.80004000  0.04806000  0.20424000  1.0
  C  C149  1  0.78506000  0.09928000  0.22395000  1.0
  C  C150  1  0.87422000  0.88148000  0.18554000  1.0
  C  C151  1  0.85892000  0.84298000  0.20472000  1.0
  C  C152  1  0.79374000  0.83384000  0.21164000  1.0
  C  C153  1  0.74518000  0.86204000  0.19808000  1.0
  C  C154  1  0.76248000  0.90016000  0.17910000  1.0
  C  C155  1  0.77522000  0.92844000  0.09130000  1.0
  C  C156  1  0.76506000  0.88842000  0.06550000  1.0
  C  C157  1  0.79262000  0.83234000  0.06218000  1.0
  C  C158  1  0.82750000  0.81652000  0.08545000  1.0
  C  C159  1  0.83610000  0.85772000  0.11110000  1.0
  C  C160  1  0.50424000  0.96082000  0.48309000  1.0
  C  C161  1  0.52932000  0.95688000  0.51074000  1.0
  C  C162  1  0.52950000  0.00648000  0.53340000  1.0
  C  C163  1  0.50396000  0.06006000  0.52782000  1.0
  C  C164  1  0.47888000  0.06398000  0.50017000  1.0
  C  C165  1  0.47904000  0.01448000  0.47747000  1.0
  C  C166  1  0.51014000  0.45860000  0.48193000  1.0
  C  C167  1  0.48516000  0.45456000  0.50959000  1.0
  C  C168  1  0.48504000  0.50410000  0.53228000  1.0
  C  C169  1  0.51038000  0.55776000  0.52671000  1.0
  C  C170  1  0.53528000  0.56180000  0.49904000  1.0
  C  C171  1  0.53526000  0.51230000  0.47634000  1.0
  C  C172  1  0.96690000  0.51384000  0.02888000  1.0
  C  C173  1  0.94044000  0.51658000  0.00133000  1.0
  C  C174  1  0.98124000  0.51572000  0.97688000  1.0
  C  C175  1  0.04904000  0.51240000  0.98057000  1.0
  C  C176  1  0.07550000  0.50962000  0.00811000  1.0
  C  C177  1  0.03470000  0.51034000  0.03257000  1.0
  C  C178  1  0.05012000  0.01062000  0.02823000  1.0
  C  C179  1  0.07618000  0.01312000  0.00059000  1.0
  C  C180  1  0.03502000  0.01256000  0.97627000  1.0
  C  C181  1  0.96724000  0.00978000  0.98022000  1.0
  C  C182  1  0.94118000  0.00730000  0.00786000  1.0
  C  C183  1  0.98234000  0.00772000  0.03217000  1.0
  C  C184  1  0.69200000  0.25156000  0.74688000  1.0
  C  C185  1  0.71186000  0.30354000  0.76500000  1.0
  C  C186  1  0.77752000  0.31176000  0.77337000  1.0
  C  C187  1  0.82298000  0.26714000  0.76344000  1.0
  C  C188  1  0.80314000  0.21516000  0.74529000  1.0
  C  C189  1  0.73746000  0.20698000  0.73687000  1.0
  C  C190  1  0.82338000  0.25404000  0.24610000  1.0
  C  C191  1  0.80262000  0.30602000  0.26395000  1.0
  C  C192  1  0.73664000  0.31378000  0.27191000  1.0
  C  C193  1  0.69180000  0.26872000  0.26180000  1.0
  C  C194  1  0.71258000  0.21672000  0.24396000  1.0
  C  C195  1  0.77854000  0.20898000  0.23600000  1.0
  C  C196  1  0.22888000  0.71960000  0.26539000  1.0
  C  C197  1  0.25050000  0.77074000  0.28366000  1.0
  C  C198  1  0.28732000  0.81280000  0.27218000  1.0
  C  C199  1  0.30228000  0.80282000  0.24216000  1.0
  C  C200  1  0.28066000  0.75164000  0.22389000  1.0
  C  C201  1  0.24366000  0.70970000  0.23535000  1.0
  C  C202  1  0.22636000  0.79984000  0.74310000  1.0
  C  C203  1  0.24792000  0.74868000  0.72481000  1.0
  C  C204  1  0.28480000  0.70662000  0.73625000  1.0
  C  C205  1  0.29982000  0.71654000  0.76627000  1.0
  C  C206  1  0.27828000  0.76772000  0.78456000  1.0
  C  C207  1  0.24132000  0.80974000  0.77313000  1.0
  C  C208  1  0.78224000  0.81682000  0.75696000  1.0
  C  C209  1  0.79856000  0.78182000  0.77765000  1.0
  C  C210  1  0.77432000  0.72400000  0.77498000  1.0
  C  C211  1  0.73354000  0.70190000  0.75114000  1.0
  C  C212  1  0.71722000  0.73690000  0.73046000  1.0
  C  C213  1  0.74140000  0.79474000  0.73314000  1.0
  C  C214  1  0.80470000  0.80568000  0.26126000  1.0
  C  C215  1  0.78702000  0.77102000  0.28191000  1.0
  C  C216  1  0.74052000  0.72582000  0.27495000  1.0
  C  C217  1  0.71214000  0.71598000  0.24689000  1.0
  C  C218  1  0.72980000  0.75064000  0.22625000  1.0
  C  C219  1  0.77626000  0.79588000  0.23322000  1.0
  C  C220  1  0.23344000  0.20428000  0.25129000  1.0
  C  C221  1  0.21670000  0.23970000  0.23083000  1.0
  C  C222  1  0.24158000  0.29726000  0.23342000  1.0
  C  C223  1  0.28336000  0.31878000  0.25698000  1.0
  C  C224  1  0.30004000  0.28342000  0.27745000  1.0
  C  C225  1  0.27532000  0.22576000  0.27482000  1.0
  C  C226  1  0.23628000  0.31578000  0.75755000  1.0
  C  C227  1  0.21974000  0.28062000  0.77814000  1.0
  C  C228  1  0.24350000  0.22262000  0.77529000  1.0
  C  C229  1  0.28404000  0.20050000  0.75137000  1.0
  C  C230  1  0.30054000  0.23564000  0.73077000  1.0
  C  C231  1  0.27684000  0.29366000  0.73363000  1.0
  C  C232  1  0.78218000  0.78062000  0.51699000  1.0
  C  C233  1  0.78186000  0.74708000  0.48877000  1.0
  C  C234  1  0.72256000  0.72938000  0.47484000  1.0
  C  C235  1  0.66362000  0.74516000  0.48953000  1.0
  C  C236  1  0.66396000  0.77804000  0.51783000  1.0
  C  C237  1  0.72322000  0.79596000  0.53175000  1.0
  C  C238  1  0.23228000  0.27874000  0.51762000  1.0
  C  C239  1  0.23232000  0.24570000  0.48928000  1.0
  C  C240  1  0.29148000  0.22856000  0.47509000  1.0
  C  C241  1  0.35058000  0.24432000  0.48966000  1.0
  C  C242  1  0.35052000  0.27666000  0.51807000  1.0
  C  C243  1  0.29140000  0.29410000  0.53224000  1.0
  C  C244  1  0.28288000  0.27498000  0.01915000  1.0
  C  C245  1  0.28328000  0.24074000  0.99109000  1.0
  C  C246  1  0.22434000  0.22398000  0.97661000  1.0
  C  C247  1  0.16502000  0.24112000  0.99068000  1.0
  C  C248  1  0.16462000  0.27494000  0.01876000  1.0
  C  C249  1  0.22354000  0.29214000  0.03318000  1.0
  C  C250  1  0.85032000  0.77654000  0.01880000  1.0
  C  C251  1  0.84978000  0.74318000  0.99061000  1.0
  C  C252  1  0.79040000  0.72648000  0.97651000  1.0
  C  C253  1  0.73150000  0.74330000  0.99102000  1.0
  C  C254  1  0.73204000  0.77706000  0.01919000  1.0
  C  C255  1  0.79146000  0.79366000  0.03328000  1.0
  Cl  Cl256  1  0.77730000  0.01844000  0.64469000  1.0
  Cl  Cl257  1  0.57328000  0.98884000  0.66953000  1.0
  Cl  Cl258  1  0.77590000  0.50248000  0.36331000  1.0
  Cl  Cl259  1  0.57066000  0.53238000  0.33989000  1.0
  Cl  Cl260  1  0.24158000  0.00160000  0.36278000  1.0
  Cl  Cl261  1  0.44702000  0.03490000  0.34090000  1.0
  Cl  Cl262  1  0.24142000  0.51770000  0.64541000  1.0
  Cl  Cl263  1  0.44608000  0.48558000  0.66858000  1.0
  Cl  Cl264  1  0.28028000  0.51860000  0.14409000  1.0
  Cl  Cl265  1  0.07538000  0.49264000  0.16918000  1.0
  Cl  Cl266  1  0.28060000  0.00022000  0.86420000  1.0
  Cl  Cl267  1  0.07624000  0.02860000  0.83929000  1.0
  Cl  Cl268  1  0.73614000  0.50216000  0.86416000  1.0
  Cl  Cl269  1  0.94086000  0.53094000  0.84003000  1.0
  Cl  Cl270  1  0.73932000  0.01952000  0.14507000  1.0
  Cl  Cl271  1  0.94434000  0.99052000  0.16888000  1.0
  Cu  Cu272  1  0.67582000  0.97352000  0.64859000  1.0
  Cu  Cu273  1  0.67428000  0.54736000  0.35969000  1.0
  Cu  Cu274  1  0.34254000  0.04802000  0.35992000  1.0
  Cu  Cu275  1  0.34254000  0.47168000  0.64857000  1.0
  Cu  Cu276  1  0.17780000  0.47564000  0.14832000  1.0
  Cu  Cu277  1  0.17866000  0.04436000  0.86030000  1.0
  Cu  Cu278  1  0.83800000  0.54668000  0.86060000  1.0
  Cu  Cu279  1  0.84116000  0.97492000  0.14864000  1.0
  F  F280  1  0.50630000  0.91254000  0.46153000  1.0
  F  F281  1  0.55542000  0.90500000  0.51508000  1.0
  F  F282  1  0.50208000  0.10838000  0.54936000  1.0
  F  F283  1  0.45290000  0.11592000  0.49581000  1.0
  F  F284  1  0.50824000  0.41034000  0.46035000  1.0
  F  F285  1  0.45920000  0.40260000  0.51390000  1.0
  F  F286  1  0.51234000  0.60604000  0.54827000  1.0
  F  F287  1  0.56108000  0.61380000  0.49468000  1.0
  F  F288  1  0.92626000  0.51600000  0.05213000  1.0
  F  F289  1  0.87490000  0.52166000  0.99872000  1.0
  F  F290  1  0.08964000  0.51028000  0.95732000  1.0
  F  F291  1  0.14102000  0.50442000  0.01069000  1.0
  F  F292  1  0.09110000  0.01242000  0.05133000  1.0
  F  F293  1  0.14172000  0.01772000  0.99777000  1.0
  F  F294  1  0.92628000  0.00796000  0.95711000  1.0
  F  F295  1  0.87564000  0.00274000  0.01071000  1.0
  F  F296  1  0.62806000  0.24420000  0.73967000  1.0
  F  F297  1  0.66665333  0.34532000  0.77497000  1.0
  F  F298  1  0.88690000  0.27452000  0.77069000  1.0
  F  F299  1  0.84842000  0.17348000  0.73526000  1.0
  F  F300  1  0.88754000  0.24712000  0.23926000  1.0
  F  F301  1  0.84728000  0.34818000  0.27413000  1.0
  F  F302  1  0.62764000  0.27564000  0.26862000  1.0
  F  F303  1  0.66794000  0.17452000  0.23381000  1.0
  F  F304  1  0.19206000  0.68042000  0.27691000  1.0
  F  F305  1  0.23372000  0.78010000  0.31241000  1.0
  F  F306  1  0.33888000  0.84212000  0.23064000  1.0
  F  F307  1  0.29728000  0.74234000  0.19512000  1.0
  F  F308  1  0.18960000  0.83908000  0.73162000  1.0
  F  F309  1  0.23108000  0.73938000  0.69606000  1.0
  F  F310  1  0.33650000  0.67724000  0.77775000  1.0
  F  F311  1  0.29506000  0.77702000  0.81331000  1.0
  F  F312  1  0.80498000  0.87300000  0.76069000  1.0
  F  F313  1  0.83660000  0.80506000  0.80077000  1.0
  F  F314  1  0.71078000  0.64572000  0.74742000  1.0
  F  F315  1  0.67912000  0.71368000  0.70735000  1.0
  F  F316  1  0.84828000  0.85006000  0.26900000  1.0
  F  F317  1  0.81418000  0.78266000  0.30900000  1.0
  F  F318  1  0.66860000  0.67158000  0.23914000  1.0
  F  F319  1  0.70258000  0.73910000  0.19918000  1.0
  F  F320  1  0.21012000  0.14830000  0.24760000  1.0
  F  F321  1  0.17758000  0.21704000  0.20799000  1.0
  F  F322  1  0.30680000  0.37472000  0.26060000  1.0
  F  F323  1  0.33906000  0.30614000  0.30031000  1.0
  F  F324  1  0.21402000  0.37214000  0.76146000  1.0
  F  F325  1  0.18190000  0.30386000  0.80133000  1.0
  F  F326  1  0.30638000  0.14416000  0.74750000  1.0
  F  F327  1  0.33832000  0.21234000  0.70756000  1.0
  F  F328  1  0.83994000  0.79756000  0.53007000  1.0
  F  F329  1  0.83932000  0.73218000  0.47493000  1.0
  F  F330  1  0.60576000  0.72746000  0.47673000  1.0
  F  F331  1  0.60634000  0.79340000  0.53143000  1.0
  F  F332  1  0.17464000  0.29526000  0.53094000  1.0
  F  F333  1  0.17472000  0.23080000  0.47557000  1.0
  F  F334  1  0.40834000  0.22714000  0.47661000  1.0
  F  F335  1  0.40830000  0.29210000  0.53152000  1.0
  F  F336  1  0.34034000  0.29112000  0.03273000  1.0
  F  F337  1  0.34112000  0.22454000  0.97788000  1.0
  F  F338  1  0.10744000  0.22404000  0.97742000  1.0
  F  F339  1  0.10666000  0.29228000  0.03159000  1.0
  F  F340  1  0.90834000  0.79340000  0.03168000  1.0
  F  F341  1  0.90730000  0.72602000  0.97732000  1.0
  F  F342  1  0.67362000  0.72750000  0.97777000  1.0
  F  F343  1  0.67464000  0.79322000  0.03284000  1.0
  H  H344  1  0.62374000  0.07644000  0.56323000  1.0
  H  H345  1  0.67798000  0.06286000  0.60844000  1.0
  H  H346  1  0.55788000  0.91590000  0.61438000  1.0
  H  H347  1  0.50216000  0.92624000  0.56884000  1.0
  H  H348  1  0.66870000  0.19660000  0.68579000  1.0
  H  H349  1  0.64192000  0.10514000  0.65254000  1.0
  H  H350  1  0.73052000  0.00426000  0.70972000  1.0
  H  H351  1  0.75652000  0.09372000  0.74452000  1.0
  H  H352  1  0.59312000  0.88270000  0.67885000  1.0
  H  H353  1  0.61992000  0.81796000  0.71326000  1.0
  H  H354  1  0.82348000  0.85462000  0.70249000  1.0
  H  H355  1  0.79324000  0.92112000  0.66921000  1.0
  H  H356  1  0.75508000  0.97442000  0.59102000  1.0
  H  H357  1  0.77318000  0.90570000  0.54625000  1.0
  H  H358  1  0.66812000  0.77336000  0.58212000  1.0
  H  H359  1  0.65198000  0.84422000  0.62712000  1.0
  H  H360  1  0.62934000  0.44354000  0.44555000  1.0
  H  H361  1  0.68058000  0.45784000  0.39974000  1.0
  H  H362  1  0.55730000  0.60352000  0.39529000  1.0
  H  H363  1  0.50460000  0.59236000  0.44135000  1.0
  H  H364  1  0.66696000  0.32448000  0.32276000  1.0
  H  H365  1  0.63994000  0.41620000  0.35584000  1.0
  H  H366  1  0.72840000  0.51656000  0.29836000  1.0
  H  H367  1  0.75470000  0.42686000  0.26378000  1.0
  H  H368  1  0.59124000  0.63594000  0.32781000  1.0
  H  H369  1  0.61870000  0.70120000  0.29379000  1.0
  H  H370  1  0.82214000  0.66642000  0.30607000  1.0
  H  H371  1  0.79146000  0.60074000  0.33963000  1.0
  H  H372  1  0.75694000  0.55038000  0.41661000  1.0
  H  H373  1  0.77580000  0.62102000  0.46063000  1.0
  H  H374  1  0.66300000  0.74876000  0.42481000  1.0
  H  H375  1  0.64660000  0.67602000  0.38041000  1.0
  H  H376  1  0.38606000  0.94500000  0.44620000  1.0
  H  H377  1  0.33594000  0.95872000  0.40007000  1.0
  H  H378  1  0.45776000  0.10574000  0.39639000  1.0
  H  H379  1  0.50940000  0.09510000  0.44274000  1.0
  H  H380  1  0.35622000  0.82520000  0.32330000  1.0
  H  H381  1  0.37968000  0.91760000  0.35661000  1.0
  H  H382  1  0.29100000  0.01578000  0.29823000  1.0
  H  H383  1  0.26680000  0.92544000  0.26378000  1.0
  H  H384  1  0.42478000  0.13778000  0.32846000  1.0
  H  H385  1  0.39724000  0.20196000  0.29400000  1.0
  H  H386  1  0.19394000  0.16558000  0.30568000  1.0
  H  H387  1  0.22488000  0.09950000  0.33902000  1.0
  H  H388  1  0.25774000  0.05022000  0.41618000  1.0
  H  H389  1  0.23814000  0.12028000  0.46032000  1.0
  H  H390  1  0.35066000  0.24914000  0.42519000  1.0
  H  H391  1  0.36802000  0.17694000  0.38071000  1.0
  H  H392  1  0.39166000  0.57418000  0.56275000  1.0
  H  H393  1  0.33902000  0.56078000  0.60835000  1.0
  H  H394  1  0.45878000  0.41310000  0.61327000  1.0
  H  H395  1  0.51296000  0.42332000  0.56736000  1.0
  H  H396  1  0.35406000  0.69480000  0.68527000  1.0
  H  H397  1  0.37868000  0.60268000  0.65202000  1.0
  H  H398  1  0.29016000  0.50370000  0.71007000  1.0
  H  H399  1  0.26480000  0.59380000  0.74448000  1.0
  H  H400  1  0.42498000  0.38028000  0.67869000  1.0
  H  H401  1  0.39822000  0.31594000  0.71326000  1.0
  H  H402  1  0.19484000  0.35464000  0.70347000  1.0
  H  H403  1  0.22508000  0.42076000  0.67003000  1.0
  H  H404  1  0.26074000  0.47244000  0.59169000  1.0
  H  H405  1  0.24118000  0.40364000  0.54709000  1.0
  H  H406  1  0.34764000  0.27128000  0.58235000  1.0
  H  H407  1  0.36520000  0.34224000  0.62720000  1.0
  H  H408  1  0.13124000  0.57816000  0.06223000  1.0
  H  H409  1  0.18438000  0.56360000  0.10758000  1.0
  H  H410  1  0.05814000  0.42102000  0.11415000  1.0
  H  H411  1  0.00402000  0.43194000  0.06836000  1.0
  H  H412  1  0.17400000  0.69908000  0.18453000  1.0
  H  H413  1  0.14636000  0.60738000  0.15153000  1.0
  H  H414  1  0.23330000  0.50684000  0.20931000  1.0
  H  H415  1  0.26184000  0.59648000  0.24339000  1.0
  H  H416  1  0.09372000  0.38744000  0.17991000  1.0
  H  H417  1  0.12004000  0.32276000  0.21439000  1.0
  H  H418  1  0.32402000  0.35526000  0.20210000  1.0
  H  H419  1  0.29438000  0.42160000  0.16869000  1.0
  H  H420  1  0.25858000  0.47190000  0.09079000  1.0
  H  H421  1  0.27636000  0.40086000  0.04680000  1.0
  H  H422  1  0.16424000  0.27384000  0.08349000  1.0
  H  H423  1  0.14856000  0.34710000  0.12774000  1.0
  H  H424  1  0.13000000  0.94300000  0.94652000  1.0
  H  H425  1  0.18328000  0.95638000  0.90103000  1.0
  H  H426  1  0.05942000  0.10048000  0.89428000  1.0
  H  H427  1  0.00522000  0.09076000  0.94024000  1.0
  H  H428  1  0.17202000  0.82088000  0.82408000  1.0
  H  H429  1  0.14562000  0.91278000  0.85716000  1.0
  H  H430  1  0.23284000  0.01264000  0.79916000  1.0
  H  H431  1  0.26016000  0.92278000  0.76498000  1.0
  H  H432  1  0.09564000  0.13480000  0.82986000  1.0
  H  H433  1  0.12212000  0.19940000  0.79533000  1.0
  H  H434  1  0.32578000  0.16270000  0.80578000  1.0
  H  H435  1  0.29590000  0.09652000  0.83923000  1.0
  H  H436  1  0.25944000  0.04558000  0.91774000  1.0
  H  H437  1  0.27672000  0.11510000  0.96231000  1.0
  H  H438  1  0.16740000  0.24476000  0.92629000  1.0
  H  H439  1  0.15208000  0.17306000  0.88149000  1.0
  H  H440  1  0.88600000  0.44628000  0.94726000  1.0
  H  H441  1  0.83298000  0.45924000  0.90162000  1.0
  H  H442  1  0.95644000  0.60360000  0.89489000  1.0
  H  H443  1  0.01058000  0.59412000  0.94090000  1.0
  H  H444  1  0.84502000  0.32312000  0.82484000  1.0
  H  H445  1  0.87108000  0.41524000  0.85783000  1.0
  H  H446  1  0.78530000  0.51460000  0.79924000  1.0
  H  H447  1  0.75970000  0.42450000  0.76481000  1.0
  H  H448  1  0.92150000  0.63670000  0.83008000  1.0
  H  H449  1  0.89546000  0.70082000  0.79528000  1.0
  H  H450  1  0.69164000  0.66450000  0.80552000  1.0
  H  H451  1  0.72110000  0.59862000  0.83919000  1.0
  H  H452  1  0.75598000  0.54806000  0.91771000  1.0
  H  H453  1  0.73782000  0.61778000  0.96211000  1.0
  H  H454  1  0.84754000  0.74740000  0.92626000  1.0
  H  H455  1  0.86372000  0.67554000  0.88161000  1.0
  H  H456  1  0.88750000  0.07692000  0.06234000  1.0
  H  H457  1  0.83528000  0.06326000  0.10805000  1.0
  H  H458  1  0.95908000  0.91856000  0.11379000  1.0
  H  H459  1  0.01236000  0.92874000  0.06771000  1.0
  H  H460  1  0.84754000  0.19814000  0.18497000  1.0
  H  H461  1  0.87450000  0.10628000  0.15196000  1.0
  H  H462  1  0.78764000  0.00616000  0.20996000  1.0
  H  H463  1  0.76118000  0.09604000  0.24442000  1.0
  H  H464  1  0.92466000  0.88586000  0.17994000  1.0
  H  H465  1  0.89780000  0.82034000  0.21397000  1.0
  H  H466  1  0.69418000  0.85588000  0.20266000  1.0
  H  H467  1  0.72428000  0.92188000  0.16918000  1.0
  H  H468  1  0.75888000  0.97292000  0.09161000  1.0
  H  H469  1  0.73958000  0.90264000  0.04752000  1.0
  H  H470  1  0.85044000  0.77364000  0.08332000  1.0
  H  H471  1  0.86766000  0.84612000  0.12771000  1.0
  N  N472  1  0.61856000  0.99104000  0.61520000  1.0
  N  N473  1  0.69078000  0.04950000  0.67757000  1.0
  N  N474  1  0.69132000  0.90962000  0.67343000  1.0
  N  N475  1  0.70636000  0.91304000  0.61332000  1.0
  N  N476  1  0.61960000  0.52920000  0.39377000  1.0
  N  N477  1  0.68860000  0.47156000  0.33060000  1.0
  N  N478  1  0.68956000  0.61072000  0.33445000  1.0
  N  N479  1  0.70462000  0.60952000  0.39425000  1.0
  N  N480  1  0.39630000  0.03074000  0.39448000  1.0
  N  N481  1  0.33072000  0.97180000  0.33085000  1.0
  N  N482  1  0.32674000  0.11098000  0.33448000  1.0
  N  N483  1  0.31036000  0.10986000  0.39422000  1.0
  N  N484  1  0.39840000  0.48860000  0.61460000  1.0
  N  N485  1  0.32968000  0.54802000  0.67753000  1.0
  N  N486  1  0.32698000  0.40822000  0.67371000  1.0
  N  N487  1  0.31038000  0.41110000  0.61369000  1.0
  N  N488  1  0.12200000  0.49394000  0.11462000  1.0
  N  N489  1  0.19414000  0.55180000  0.17693000  1.0
  N  N490  1  0.19232000  0.41226000  0.17362000  1.0
  N  N491  1  0.20652000  0.41320000  0.11352000  1.0
  N  N492  1  0.12208000  0.02676000  0.89390000  1.0
  N  N493  1  0.19374000  0.96798000  0.83166000  1.0
  N  N494  1  0.19390000  0.10794000  0.83519000  1.0
  N  N495  1  0.20852000  0.10562000  0.89538000  1.0
  N  N496  1  0.89406000  0.52970000  0.89449000  1.0
  N  N497  1  0.82362000  0.47016000  0.83200000  1.0
  N  N498  1  0.82314000  0.60996000  0.83530000  1.0
  N  N499  1  0.80718000  0.60806000  0.89542000  1.0
  N  N500  1  0.89654000  0.99252000  0.11467000  1.0
  N  N501  1  0.82660000  0.05102000  0.17749000  1.0
  N  N502  1  0.82624000  0.91150000  0.17386000  1.0
  N  N503  1  0.81050000  0.91324000  0.11393000  1.0
