# generated using pymatgen
data_ZnH8C16N2(OF2)4
_symmetry_space_group_name_H-M   'P 1'
_cell_length_a   13.50195000
_cell_length_b   17.39720000
_cell_length_c   29.30980000
_cell_angle_alpha   104.98500000
_cell_angle_beta   90.00000000
_cell_angle_gamma   89.99700000
_symmetry_Int_Tables_number   1
_chemical_formula_structural   ZnH8C16N2(OF2)4
_chemical_formula_sum   'Zn8 H64 C128 N16 O32 F64'
_cell_volume   6650.63224069
_cell_formula_units_Z   8
loop_
 _symmetry_equiv_pos_site_id
 _symmetry_equiv_pos_as_xyz
  1  'x, y, z'
loop_
 _atom_site_type_symbol
 _atom_site_label
 _atom_site_symmetry_multiplicity
 _atom_site_fract_x
 _atom_site_fract_y
 _atom_site_fract_z
 _atom_site_occupancy
  C  C0  1  0.75248000  0.22170000  0.50113000  1.0
  C  C1  1  0.50454000  0.10746000  0.48612000  1.0
  C  C2  1  0.72346000  0.22116000  0.38811000  1.0
  C  C3  1  0.72930000  0.25748000  0.35122000  1.0
  C  C4  1  0.64296000  0.26740000  0.32643000  1.0
  C  C5  1  0.55286000  0.23982000  0.34005000  1.0
  C  C6  1  0.55034000  0.20384000  0.37729000  1.0
  C  C7  1  0.58122000  0.01728000  0.37605000  1.0
  C  C8  1  0.59082000  0.95408000  0.33581000  1.0
  C  C9  1  0.68522000  0.92834000  0.31848000  1.0
  C  C10  1  0.76828000  0.96654000  0.34327000  1.0
  C  C11  1  0.75538000  0.03020000  0.38332000  1.0
  C  C12  1  0.75852000  0.41388000  0.55555000  1.0
  C  C13  1  0.51196000  0.52104000  0.56813000  1.0
  C  C14  1  0.76194000  0.44662000  0.67206000  1.0
  C  C15  1  0.78336000  0.41028000  0.70792000  1.0
  C  C16  1  0.70658000  0.38032000  0.73052000  1.0
  C  C17  1  0.60826000  0.39068000  0.71688000  1.0
  C  C18  1  0.59006000  0.42792000  0.68084000  1.0
  C  C19  1  0.58638000  0.62656000  0.67632000  1.0
  C  C20  1  0.59078000  0.69998000  0.70984000  1.0
  C  C21  1  0.68056000  0.74188000  0.71829000  1.0
  C  C22  1  0.76468000  0.70714000  0.69280000  1.0
  C  C23  1  0.75686000  0.63358000  0.65922000  1.0
  C  C24  1  0.09406000  0.91382000  0.55553000  1.0
  C  C25  1  0.34272000  0.02574000  0.56992000  1.0
  C  C26  1  0.12374000  0.90658000  0.66562000  1.0
  C  C27  1  0.12024000  0.85976000  0.69748000  1.0
  C  C28  1  0.20766000  0.84412000  0.71918000  1.0
  C  C29  1  0.29644000  0.87874000  0.70953000  1.0
  C  C30  1  0.29678000  0.92486000  0.67711000  1.0
  C  C31  1  0.26684000  0.11942000  0.67811000  1.0
  C  C32  1  0.25764000  0.18932000  0.71415000  1.0
  C  C33  1  0.16302000  0.21898000  0.72958000  1.0
  C  C34  1  0.08024000  0.17496000  0.70827000  1.0
  C  C35  1  0.09282000  0.10526000  0.67215000  1.0
  C  C36  1  0.09566000  0.72502000  0.50175000  1.0
  C  C37  1  0.34790000  0.62010000  0.49143000  1.0
  C  C38  1  0.12760000  0.73138000  0.39191000  1.0
  C  C39  1  0.12448000  0.77774000  0.35975000  1.0
  C  C40  1  0.21162000  0.79146000  0.33716000  1.0
  C  C41  1  0.29956000  0.75472000  0.34603000  1.0
  C  C42  1  0.29958000  0.70922000  0.37890000  1.0
  C  C43  1  0.27058000  0.51402000  0.38343000  1.0
  C  C44  1  0.26032000  0.44488000  0.34677000  1.0
  C  C45  1  0.16560000  0.41978000  0.32877000  1.0
  C  C46  1  0.08396000  0.46676000  0.34873000  1.0
  C  C47  1  0.09756000  0.53538000  0.38551000  1.0
  C  C48  1  0.29010000  0.72552000  0.00159000  1.0
  C  C49  1  0.04170000  0.61306000  0.98702000  1.0
  C  C50  1  0.26000000  0.73336000  0.89162000  1.0
  C  C51  1  0.26334000  0.78034000  0.85984000  1.0
  C  C52  1  0.17584000  0.79604000  0.83822000  1.0
  C  C53  1  0.08710000  0.76138000  0.84791000  1.0
  C  C54  1  0.08694000  0.71510000  0.88025000  1.0
  C  C55  1  0.11736000  0.52040000  0.87870000  1.0
  C  C56  1  0.12654000  0.45060000  0.84258000  1.0
  C  C57  1  0.22116000  0.42094000  0.82715000  1.0
  C  C58  1  0.30396000  0.46490000  0.84851000  1.0
  C  C59  1  0.29136000  0.53452000  0.88469000  1.0
  C  C60  1  0.28864000  0.91430000  0.05556000  1.0
  C  C61  1  0.03658000  0.01948000  0.06625000  1.0
  C  C62  1  0.25740000  0.90774000  0.16539000  1.0
  C  C63  1  0.26076000  0.86126000  0.19747000  1.0
  C  C64  1  0.17376000  0.84728000  0.22007000  1.0
  C  C65  1  0.08566000  0.88388000  0.21127000  1.0
  C  C66  1  0.08538000  0.92952000  0.17847000  1.0
  C  C67  1  0.11406000  0.12486000  0.17433000  1.0
  C  C68  1  0.12434000  0.19392000  0.21106000  1.0
  C  C69  1  0.21912000  0.21918000  0.22891000  1.0
  C  C70  1  0.30080000  0.17242000  0.20877000  1.0
  C  C71  1  0.28718000  0.10388000  0.17194000  1.0
  C  C72  1  0.63214000  0.41882000  0.05649000  1.0
  C  C73  1  0.87948000  0.53400000  0.07167000  1.0
  C  C74  1  0.66104000  0.41964000  0.16954000  1.0
  C  C75  1  0.65524000  0.38332000  0.20643000  1.0
  C  C76  1  0.74160000  0.37338000  0.23119000  1.0
  C  C77  1  0.83170000  0.40092000  0.21754000  1.0
  C  C78  1  0.83418000  0.43692000  0.18030000  1.0
  C  C79  1  0.80264000  0.62350000  0.18172000  1.0
  C  C80  1  0.79286000  0.68670000  0.22195000  1.0
  C  C81  1  0.69838000  0.71242000  0.23917000  1.0
  C  C82  1  0.61542000  0.67418000  0.21430000  1.0
  C  C83  1  0.62852000  0.61052000  0.17426000  1.0
  C  C84  1  0.62620000  0.22630000  0.00233000  1.0
  C  C85  1  0.87248000  0.11868000  0.98964000  1.0
  C  C86  1  0.62236000  0.19328000  0.88584000  1.0
  C  C87  1  0.60094000  0.22942000  0.84990000  1.0
  C  C88  1  0.67774000  0.25896000  0.82710000  1.0
  C  C89  1  0.77608000  0.24830000  0.84061000  1.0
  C  C90  1  0.79426000  0.21130000  0.87675000  1.0
  C  C91  1  0.79760000  0.01304000  0.88163000  1.0
  C  C92  1  0.79296000  0.93958000  0.84815000  1.0
  C  C93  1  0.70306000  0.89786000  0.83975000  1.0
  C  C94  1  0.61904000  0.93282000  0.86525000  1.0
  C  C95  1  0.62708000  0.00640000  0.89879000  1.0
  C  C96  1  0.41338000  0.07688000  0.50445000  1.0
  C  C97  1  0.43392000  0.05598000  0.55140000  1.0
  C  C98  1  0.43944000  0.59894000  0.51444000  1.0
  C  C99  1  0.41944000  0.54044000  0.54496000  1.0
  C  C100  1  0.97038000  0.56510000  0.05344000  1.0
  C  C101  1  0.95072000  0.58234000  0.00542000  1.0
  C  C102  1  0.94496000  0.04088000  0.04339000  1.0
  C  C103  1  0.96506000  0.09910000  0.01269000  1.0
  C  C104  1  0.68712000  0.77926000  0.28407000  1.0
  C  C105  1  0.69630000  0.86150000  0.27358000  1.0
  C  C106  1  0.68526000  0.82350000  0.75346000  1.0
  C  C107  1  0.69812000  0.81626000  0.80459000  1.0
  C  C108  1  0.14510000  0.29630000  0.76757000  1.0
  C  C109  1  0.23908000  0.34364000  0.78914000  1.0
  C  C110  1  0.14618000  0.34476000  0.28910000  1.0
  C  C111  1  0.23852000  0.29410000  0.26866000  1.0
  C  C112  1  0.74312000  0.33484000  0.27204000  1.0
  C  C113  1  0.64148000  0.30594000  0.28559000  1.0
  C  C114  1  0.73550000  0.33704000  0.76746000  1.0
  C  C115  1  0.64884000  0.30206000  0.79008000  1.0
  C  C116  1  0.17852000  0.84628000  0.80337000  1.0
  C  C117  1  0.20486000  0.79388000  0.75403000  1.0
  C  C118  1  0.17614000  0.79500000  0.25398000  1.0
  C  C119  1  0.20952000  0.84366000  0.30320000  1.0
  C  C120  1  0.83396000  0.35944000  0.52571000  1.0
  C  C121  1  0.83100000  0.27268000  0.53093000  1.0
  C  C122  1  0.01522000  0.86284000  0.52614000  1.0
  C  C123  1  0.01534000  0.77556000  0.53026000  1.0
  C  C124  1  0.36882000  0.86378000  0.02693000  1.0
  C  C125  1  0.36894000  0.77646000  0.03099000  1.0
  C  C126  1  0.55382000  0.36756000  0.02670000  1.0
  C  C127  1  0.55090000  0.28094000  0.03216000  1.0
  F  F128  1  0.38238000  0.00920000  0.47122000  1.0
  F  F129  1  0.50734000  0.99862000  0.54563000  1.0
  F  F130  1  0.33968000  0.13400000  0.51015000  1.0
  F  F131  1  0.46540000  0.12356000  0.58457000  1.0
  F  F132  1  0.48012000  0.66866000  0.54201000  1.0
  F  F133  1  0.35150000  0.57322000  0.57998000  1.0
  F  F134  1  0.50650000  0.56554000  0.47913000  1.0
  F  F135  1  0.38040000  0.47016000  0.51732000  1.0
  F  F136  1  0.04590000  0.50986000  0.04966000  1.0
  F  F137  1  0.92230000  0.51270000  0.97317000  1.0
  F  F138  1  0.99832000  0.63484000  0.08575000  1.0
  F  F139  1  0.87548000  0.63784000  0.00926000  1.0
  F  F140  1  0.87836000  0.07472000  0.07882000  1.0
  F  F141  1  0.00458000  0.16932000  0.04015000  1.0
  F  F142  1  0.90372000  0.97124000  0.01602000  1.0
  F  F143  1  0.03262000  0.06590000  0.97759000  1.0
  F  F144  1  0.76026000  0.77230000  0.31597000  1.0
  F  F145  1  0.78742000  0.86716000  0.25285000  1.0
  F  F146  1  0.59592000  0.77354000  0.30472000  1.0
  F  F147  1  0.62304000  0.86850000  0.24174000  1.0
  F  F148  1  0.59846000  0.86472000  0.75079000  1.0
  F  F149  1  0.61976000  0.77304000  0.81586000  1.0
  F  F150  1  0.76350000  0.86686000  0.74222000  1.0
  F  F151  1  0.78480000  0.77488000  0.80724000  1.0
  F  F152  1  0.09134000  0.27728000  0.80342000  1.0
  F  F153  1  0.29746000  0.29558000  0.80923000  1.0
  F  F154  1  0.08674000  0.34434000  0.74746000  1.0
  F  F155  1  0.29284000  0.36272000  0.75329000  1.0
  F  F156  1  0.09926000  0.36832000  0.25289000  1.0
  F  F157  1  0.30380000  0.34104000  0.25122000  1.0
  F  F158  1  0.08102000  0.29788000  0.30664000  1.0
  F  F159  1  0.28530000  0.27040000  0.30484000  1.0
  F  F160  1  0.78184000  0.39018000  0.31075000  1.0
  F  F161  1  0.57722000  0.37016000  0.29781000  1.0
  F  F162  1  0.80740000  0.27062000  0.25983000  1.0
  F  F163  1  0.60274000  0.25062000  0.24688000  1.0
  F  F164  1  0.78750000  0.39036000  0.80263000  1.0
  F  F165  1  0.58524000  0.36330000  0.81166000  1.0
  F  F166  1  0.79896000  0.27580000  0.74577000  1.0
  F  F167  1  0.59698000  0.24858000  0.75493000  1.0
  F  F168  1  0.24894000  0.90580000  0.81724000  1.0
  F  F169  1  0.29622000  0.75806000  0.75547000  1.0
  F  F170  1  0.08712000  0.88204000  0.80194000  1.0
  F  F171  1  0.13438000  0.73438000  0.74016000  1.0
  F  F172  1  0.24178000  0.73264000  0.23758000  1.0
  F  F173  1  0.30278000  0.87544000  0.30018000  1.0
  F  F174  1  0.08298000  0.76304000  0.25701000  1.0
  F  F175  1  0.14404000  0.90616000  0.31956000  1.0
  F  F176  1  0.92688000  0.39120000  0.53883000  1.0
  F  F177  1  0.92198000  0.23716000  0.51765000  1.0
  F  F178  1  0.81952000  0.35946000  0.47895000  1.0
  F  F179  1  0.81540000  0.27336000  0.57772000  1.0
  F  F180  1  0.02818000  0.86396000  0.47947000  1.0
  F  F181  1  0.02616000  0.77454000  0.57706000  1.0
  F  F182  1  0.92400000  0.89674000  0.54072000  1.0
  F  F183  1  0.92496000  0.74096000  0.51472000  1.0
  F  F184  1  0.45928000  0.89830000  0.04240000  1.0
  F  F185  1  0.46016000  0.74256000  0.01638000  1.0
  F  F186  1  0.35780000  0.86490000  0.98016000  1.0
  F  F187  1  0.35602000  0.77524000  0.07764000  1.0
  F  F188  1  0.56962000  0.36656000  0.97987000  1.0
  F  F189  1  0.56560000  0.28126000  0.07895000  1.0
  F  F190  1  0.46274000  0.40304000  0.03979000  1.0
  F  F191  1  0.45792000  0.24916000  0.01922000  1.0
  H  H192  1  0.79026000  0.21306000  0.40658000  1.0
  H  H193  1  0.80148000  0.27672000  0.34294000  1.0
  H  H194  1  0.48470000  0.24590000  0.32180000  1.0
  H  H195  1  0.48050000  0.18212000  0.38686000  1.0
  H  H196  1  0.50798000  0.03730000  0.38848000  1.0
  H  H197  1  0.52472000  0.92606000  0.31810000  1.0
  H  H198  1  0.84266000  0.94816000  0.33156000  1.0
  H  H199  1  0.81980000  0.06034000  0.40127000  1.0
  H  H200  1  0.82214000  0.46736000  0.65412000  1.0
  H  H201  1  0.86000000  0.40404000  0.71730000  1.0
  H  H202  1  0.54512000  0.36960000  0.73268000  1.0
  H  H203  1  0.51460000  0.43408000  0.67017000  1.0
  H  H204  1  0.51664000  0.59514000  0.67007000  1.0
  H  H205  1  0.52417000  0.72406000  0.72880000  1.0
  H  H206  1  0.83582000  0.73678000  0.69840000  1.0
  H  H207  1  0.82178000  0.60808000  0.63951000  1.0
  H  H208  1  0.05626000  0.91776000  0.64865000  1.0
  H  H209  1  0.04980000  0.83586000  0.70497000  1.0
  H  H210  1  0.36504000  0.86996000  0.72666000  1.0
  H  H211  1  0.36572000  0.95042000  0.66953000  1.0
  H  H212  1  0.33994000  0.09780000  0.66645000  1.0
  H  H213  1  0.32496000  0.21906000  0.72880000  1.0
  H  H214  1  0.00590000  0.19498000  0.71919000  1.0
  H  H215  1  0.02826000  0.07268000  0.65604000  1.0
  H  H216  1  0.06028000  0.72206000  0.40959000  1.0
  H  H217  1  0.05462000  0.80332000  0.35300000  1.0
  H  H218  1  0.36792000  0.76188000  0.32825000  1.0
  H  H219  1  0.36798000  0.68244000  0.38613000  1.0
  H  H220  1  0.34372000  0.53278000  0.39668000  1.0
  H  H221  1  0.32680000  0.41246000  0.33333333  1.0
  H  H222  1  0.00966000  0.45026000  0.33594000  1.0
  H  H223  1  0.03386000  0.57076000  0.40017000  1.0
  H  H224  1  0.32756000  0.72210000  0.90850000  1.0
  H  H225  1  0.33374000  0.80428000  0.85232000  1.0
  H  H226  1  0.01844000  0.77018000  0.83084000  1.0
  H  H227  1  0.01804000  0.68946000  0.88784000  1.0
  H  H228  1  0.04424000  0.54198000  0.89038000  1.0
  H  H229  1  0.05922000  0.42092000  0.82788000  1.0
  H  H230  1  0.37830000  0.44490000  0.83759000  1.0
  H  H231  1  0.35592000  0.56702000  0.90086000  1.0
  H  H232  1  0.32464000  0.91726000  0.14770000  1.0
  H  H233  1  0.33074000  0.83576000  0.20418000  1.0
  H  H234  1  0.01738000  0.87654000  0.22905000  1.0
  H  H235  1  0.01686000  0.95622000  0.17130000  1.0
  H  H236  1  0.04088000  0.10600000  0.16119000  1.0
  H  H237  1  0.05782000  0.22614000  0.22463000  1.0
  H  H238  1  0.37514000  0.18904000  0.22146000  1.0
  H  H239  1  0.35090000  0.06868000  0.15713000  1.0
  H  H240  1  0.59420000  0.42776000  0.15110000  1.0
  H  H241  1  0.58308000  0.36410000  0.21473000  1.0
  H  H242  1  0.89988000  0.39482000  0.23577000  1.0
  H  H243  1  0.90398000  0.45862000  0.17071000  1.0
  H  H244  1  0.87594000  0.60354000  0.16936000  1.0
  H  H245  1  0.85888000  0.71476000  0.23973000  1.0
  H  H246  1  0.54100000  0.69254000  0.22593000  1.0
  H  H247  1  0.56418000  0.58038000  0.15623000  1.0
  H  H248  1  0.56214000  0.17284000  0.90393000  1.0
  H  H249  1  0.52426000  0.23584000  0.84061000  1.0
  H  H250  1  0.83924000  0.26902000  0.82463000  1.0
  H  H251  1  0.86976000  0.20492000  0.88732000  1.0
  H  H252  1  0.86742000  0.04430000  0.88784000  1.0
  H  H253  1  0.85950000  0.91536000  0.82919000  1.0
  H  H254  1  0.54780000  0.90330000  0.85968000  1.0
  H  H255  1  0.56224000  0.03206000  0.91851000  1.0
  N  N256  1  0.63512000  0.19514000  0.40066000  1.0
  N  N257  1  0.66264000  0.05524000  0.39880000  1.0
  N  N258  1  0.66665333  0.45416000  0.65867000  1.0
  N  N259  1  0.66838000  0.59458000  0.65136000  1.0
  N  N260  1  0.21144000  0.93646000  0.65495000  1.0
  N  N261  1  0.18532000  0.07916000  0.65718000  1.0
  N  N262  1  0.21480000  0.70022000  0.40224000  1.0
  N  N263  1  0.18996000  0.55774000  0.40251000  1.0
  N  N264  1  0.17240000  0.70336000  0.90229000  1.0
  N  N265  1  0.19886000  0.56056000  0.89969000  1.0
  N  N266  1  0.17006000  0.93880000  0.15513000  1.0
  N  N267  1  0.19472000  0.08138000  0.15506000  1.0
  N  N268  1  0.74936000  0.44566000  0.15697000  1.0
  N  N269  1  0.72132000  0.58554000  0.15888000  1.0
  N  N270  1  0.71768000  0.18550000  0.89911000  1.0
  N  N271  1  0.71570000  0.04522000  0.90660000  1.0
  O  O272  1  0.76528000  0.14698000  0.47950000  1.0
  O  O273  1  0.66664333  0.24788000  0.49222000  1.0
  O  O274  1  0.59094000  0.07406000  0.48450000  1.0
  O  O275  1  0.50352000  0.16632000  0.46653000  1.0
  O  O276  1  0.77258000  0.49014000  0.57285000  1.0
  O  O277  1  0.67468000  0.38964000  0.56859000  1.0
  O  O278  1  0.59816000  0.55220000  0.56422000  1.0
  O  O279  1  0.51340000  0.47246000  0.59527000  1.0
  O  O280  1  0.08108000  0.98816000  0.57778000  1.0
  O  O281  1  0.18030000  0.88764000  0.56380000  1.0
  O  O282  1  0.25620000  0.05878000  0.57112000  1.0
  O  O283  1  0.34388000  0.96810000  0.59045000  1.0
  O  O284  1  0.08512000  0.64982000  0.48085000  1.0
  O  O285  1  0.18070000  0.75232000  0.49275000  1.0
  O  O286  1  0.26268000  0.58516000  0.49061000  1.0
  O  O287  1  0.34734000  0.67398000  0.46806000  1.0
  O  O288  1  0.30318000  0.65128000  0.97916000  1.0
  O  O289  1  0.20372000  0.75166000  0.99348000  1.0
  O  O290  1  0.12832000  0.58016000  0.98570000  1.0
  O  O291  1  0.04028000  0.67102000  0.96673000  1.0
  O  O292  1  0.29934000  0.98944000  0.07655000  1.0
  O  O293  1  0.20360000  0.88702000  0.06457000  1.0
  O  O294  1  0.12184000  0.05434000  0.06704000  1.0
  O  O295  1  0.03716000  0.96546000  0.08953000  1.0
  O  O296  1  0.61898000  0.49348000  0.07814000  1.0
  O  O297  1  0.71818000  0.39292000  0.06537000  1.0
  O  O298  1  0.79288000  0.56704000  0.07324000  1.0
  O  O299  1  0.88086000  0.47506000  0.09118000  1.0
  O  O300  1  0.61192000  0.15004000  0.98513000  1.0
  O  O301  1  0.71006000  0.25036000  0.98920000  1.0
  O  O302  1  0.78622000  0.08772000  0.99366000  1.0
  O  O303  1  0.87106000  0.16720000  0.96246000  1.0
  Zn  Zn304  1  0.63832000  0.14640000  0.45194000  1.0
  Zn  Zn305  1  0.64984000  0.49424000  0.60419000  1.0
  Zn  Zn306  1  0.20874000  0.98778000  0.60469000  1.0
  Zn  Zn307  1  0.21268000  0.65120000  0.45387000  1.0
  Zn  Zn308  1  0.17542000  0.65166000  0.95237000  1.0
  Zn  Zn309  1  0.17188000  0.98808000  0.10361000  1.0
  Zn  Zn310  1  0.74598000  0.49446000  0.10572000  1.0
  Zn  Zn311  1  0.73456000  0.14564000  0.95367000  1.0
