# generated using pymatgen
data_Zn3H18(C9O4)4
_symmetry_space_group_name_H-M   'P 1'
_cell_length_a   13.21005000
_cell_length_b   17.76790000
_cell_length_c   17.76790000
_cell_angle_alpha   85.62600000
_cell_angle_beta   85.98200000
_cell_angle_gamma   85.98200000
_symmetry_Int_Tables_number   1
_chemical_formula_structural   Zn3H18(C9O4)4
_chemical_formula_sum   'Zn6 H36 C72 O32'
_cell_volume   4139.23070052
_cell_formula_units_Z   2
loop_
 _symmetry_equiv_pos_site_id
 _symmetry_equiv_pos_as_xyz
  1  'x, y, z'
loop_
 _atom_site_type_symbol
 _atom_site_label
 _atom_site_symmetry_multiplicity
 _atom_site_fract_x
 _atom_site_fract_y
 _atom_site_fract_z
 _atom_site_occupancy
  C  C0  1  0.81328500  0.38454500  0.64716000  1.0
  C  C1  1  0.46214000  0.32450000  0.68854000  1.0
  C  C2  1  0.59140000  0.42692000  0.84410000  1.0
  C  C3  1  0.74580000  0.13506000  0.95724000  1.0
  C  C4  1  0.60592000  0.07714000  0.71477000  1.0
  C  C5  1  0.94038000  0.20270000  0.76370000  1.0
  C  C6  1  0.14381500  0.89238000  0.15544000  1.0
  C  C7  1  0.49374000  0.82112000  0.26742000  1.0
  C  C8  1  0.36692000  0.70440000  0.11228000  1.0
  C  C9  1  0.20506500  0.58426000  0.40494000  1.0
  C  C10  1  0.32852000  0.83912000  0.47392000  1.0
  C  C11  1  0.02609500  0.77709500  0.37480000  1.0
  C  C12  1  0.03684000  0.20134500  0.71674000  1.0
  C  C13  1  0.05512000  0.14998500  0.66004000  1.0
  C  C14  1  0.14744000  0.14688000  0.61668000  1.0
  C  C15  1  0.22298000  0.19514000  0.62925500  1.0
  C  C16  1  0.20480000  0.24718000  0.68582000  1.0
  C  C17  1  0.11190000  0.25006000  0.72906000  1.0
  C  C18  1  0.28130000  0.29350000  0.70058000  1.0
  C  C19  1  0.37730000  0.28658000  0.66176000  1.0
  C  C20  1  0.39412000  0.23628000  0.60420000  1.0
  C  C21  1  0.31714000  0.19132000  0.58758000  1.0
  C  C22  1  0.57730000  0.85198000  0.30424000  1.0
  C  C23  1  0.56236000  0.91876000  0.34240000  1.0
  C  C24  1  0.64162000  0.94484000  0.37978000  1.0
  C  C25  1  0.73695000  0.90446000  0.37954000  1.0
  C  C26  1  0.75258000  0.83810000  0.34026000  1.0
  C  C27  1  0.67316000  0.81254000  0.30295500  1.0
  C  C28  1  0.84722000  0.79748000  0.33920000  1.0
  C  C29  1  0.92744000  0.82184000  0.37690500  1.0
  C  C30  1  0.91164000  0.88776000  0.41634000  1.0
  C  C31  1  0.81690000  0.92862000  0.41792000  1.0
  C  C32  1  0.17318000  0.51464000  0.44758000  1.0
  C  C33  1  0.21888000  0.44449000  0.42774000  1.0
  C  C34  1  0.17796000  0.37723000  0.45658000  1.0
  C  C35  1  0.08932000  0.37908000  0.50458000  1.0
  C  C36  1  0.04510000  0.44916000  0.52772000  1.0
  C  C37  1  0.08846000  0.51668000  0.49992000  1.0
  C  C38  1  0.95556000  0.45064000  0.57530000  1.0
  C  C39  1  0.90854000  0.38328000  0.59838000  1.0
  C  C40  1  0.95198000  0.31452000  0.57326000  1.0
  C  C41  1  0.04200000  0.31234000  0.52740000  1.0
  C  C42  1  0.56212000  0.50650000  0.86052000  1.0
  C  C43  1  0.57993000  0.56642000  0.80580000  1.0
  C  C44  1  0.55368000  0.64142000  0.82212000  1.0
  C  C45  1  0.50864000  0.65794000  0.89340000  1.0
  C  C46  1  0.48960000  0.59822000  0.94848000  1.0
  C  C47  1  0.51658000  0.52312000  0.93182000  1.0
  C  C48  1  0.44374000  0.61430000  0.01954000  1.0
  C  C49  1  0.41666000  0.68940000  0.03696000  1.0
  C  C50  1  0.43687500  0.74853000  0.98202000  1.0
  C  C51  1  0.48225000  0.73294000  0.91076000  1.0
  C  C52  1  0.04824000  0.94116000  0.15688000  1.0
  C  C53  1  0.99945000  0.95978000  0.22646000  1.0
  C  C54  1  0.90827500  0.00434000  0.22904000  1.0
  C  C55  1  0.86480000  0.03228000  0.16204000  1.0
  C  C56  1  0.91376000  0.01528000  0.09144000  1.0
  C  C57  1  0.00474000  0.96910000  0.08934000  1.0
  C  C58  1  0.87223500  0.04634000  0.02426000  1.0
  C  C59  1  0.78341500  0.09502000  0.02702000  1.0
  C  C60  1  0.73422000  0.10950500  0.09772000  1.0
  C  C61  1  0.77424000  0.07820000  0.16454000  1.0
  C  C62  1  0.42054000  0.85718000  0.51052000  1.0
  C  C63  1  0.50921500  0.80904000  0.50312500  1.0
  C  C64  1  0.59638500  0.82316500  0.53786000  1.0
  C  C65  1  0.59698000  0.88566000  0.58114000  1.0
  C  C66  1  0.50894000  0.93538000  0.58928000  1.0
  C  C67  1  0.42102000  0.92082000  0.55350000  1.0
  C  C68  1  0.51082000  0.99824000  0.63327000  1.0
  C  C69  1  0.59926000  0.01088000  0.66946500  1.0
  C  C70  1  0.68548000  0.96034500  0.66038000  1.0
  C  C71  1  0.68452000  0.89886000  0.61655000  1.0
  H  H72  1  0.99832000  0.11162000  0.64958000  1.0
  H  H73  1  0.15990000  0.10646000  0.57372000  1.0
  H  H74  1  0.09838000  0.28975500  0.77270000  1.0
  H  H75  1  0.26776000  0.33170000  0.74554000  1.0
  H  H76  1  0.46772000  0.23006000  0.57360000  1.0
  H  H77  1  0.33240000  0.15188000  0.54390000  1.0
  H  H78  1  0.48908000  0.95020000  0.34442000  1.0
  H  H79  1  0.62792000  0.99589500  0.40965000  1.0
  H  H80  1  0.68605000  0.76108000  0.27356000  1.0
  H  H81  1  0.85836000  0.74675500  0.30850000  1.0
  H  H82  1  0.97228000  0.90754000  0.44614000  1.0
  H  H83  1  0.80636000  0.97918000  0.44880000  1.0
  H  H84  1  0.28462000  0.44176000  0.38776000  1.0
  H  H85  1  0.21341500  0.32398000  0.43898000  1.0
  H  H86  1  0.05230000  0.57072000  0.51482000  1.0
  H  H87  1  0.92182000  0.50428000  0.59324500  1.0
  H  H88  1  0.91574000  0.26220000  0.58840000  1.0
  H  H89  1  0.07325500  0.25862000  0.50815500  1.0
  H  H90  1  0.61488000  0.55548000  0.75040000  1.0
  H  H91  1  0.56875000  0.68646000  0.77898000  1.0
  H  H92  1  0.50186000  0.47766000  0.97462000  1.0
  H  H93  1  0.42939000  0.56790000  0.06134000  1.0
  H  H94  1  0.41690000  0.80680000  0.99382000  1.0
  H  H95  1  0.49650000  0.77954000  0.86924000  1.0
  H  H96  1  0.03174500  0.93985000  0.27922000  1.0
  H  H97  1  0.87254500  0.01803000  0.28344000  1.0
  H  H98  1  0.04216000  0.95580000  0.03522000  1.0
  H  H99  1  0.91108000  0.03480000  0.97016000  1.0
  H  H100  1  0.66534000  0.14621000  0.10162000  1.0
  H  H101  1  0.73535500  0.09119000  0.21821500  1.0
  H  H102  1  0.51173500  0.76006000  0.47014000  1.0
  H  H103  1  0.66356000  0.78504000  0.53078000  1.0
  H  H104  1  0.35322000  0.95850000  0.55960000  1.0
  H  H105  1  0.44392000  0.03680000  0.63946000  1.0
  H  H106  1  0.75512000  0.96857500  0.68654000  1.0
  H  H107  1  0.75262000  0.86148000  0.61044000  1.0
  O  O108  1  0.53594000  0.13328000  0.71384000  1.0
  O  O109  1  0.68876000  0.08138000  0.75082000  1.0
  O  O110  1  0.93384000  0.22988000  0.83070000  1.0
  O  O111  1  0.86220000  0.17192000  0.74022000  1.0
  O  O112  1  0.76404000  0.44922000  0.66144000  1.0
  O  O113  1  0.77670000  0.32078000  0.67590000  1.0
  O  O114  1  0.55524000  0.29414000  0.67870000  1.0
  O  O115  1  0.44328000  0.37822000  0.73532000  1.0
  O  O116  1  0.62604000  0.41110000  0.77534000  1.0
  O  O117  1  0.58330000  0.37327500  0.89922000  1.0
  O  O118  1  0.68078000  0.19430000  0.96382000  1.0
  O  O119  1  0.78223000  0.11400000  0.89088000  1.0
  O  O120  1  0.67006000  0.24244000  0.80983000  1.0
  O  O121  1  0.74264000  0.31575500  0.90442500  1.0
  O  O122  1  0.54110000  0.26274000  0.98446000  1.0
  O  O123  1  0.52218000  0.24417000  0.84986000  1.0
  O  O124  1  0.24376000  0.88204000  0.48052000  1.0
  O  O125  1  0.33150500  0.77798000  0.43610000  1.0
  O  O126  1  0.03164000  0.70832000  0.35180000  1.0
  O  O127  1  0.10929000  0.80448000  0.39480000  1.0
  O  O128  1  0.18326000  0.86650000  0.09182000  1.0
  O  O129  1  0.18788000  0.87280000  0.21880000  1.0
  O  O130  1  0.40178000  0.85450000  0.26942000  1.0
  O  O131  1  0.51000000  0.75738000  0.23436000  1.0
  O  O132  1  0.35180500  0.77426500  0.13344000  1.0
  O  O133  1  0.33922000  0.64606000  0.15715500  1.0
  O  O134  1  0.23332000  0.57946000  0.33286000  1.0
  O  O135  1  0.19748000  0.64902000  0.43686000  1.0
  O  O136  1  0.26663000  0.72908000  0.29230000  1.0
  O  O137  1  0.16402000  0.70140000  0.21704000  1.0
  O  O138  1  0.21179500  0.56348000  0.21697000  1.0
  O  O139  1  0.39990000  0.62452000  0.27354000  1.0
  Zn  Zn140  1  0.74578000  0.15544000  0.79876000  1.0
  Zn  Zn141  1  0.65766000  0.31736000  0.73614000  1.0
  Zn  Zn142  1  0.62462000  0.27184000  0.90060000  1.0
  Zn  Zn143  1  0.22646000  0.74128000  0.38926000  1.0
  Zn  Zn144  1  0.30148000  0.80692000  0.22776000  1.0
  Zn  Zn145  1  0.27018000  0.64214000  0.24962000  1.0
