# generated using pymatgen
data_CoH11C16NO5
_symmetry_space_group_name_H-M   'P 1'
_cell_length_a   27.05220000
_cell_length_b   50.85618654
_cell_length_c   52.90120000
_cell_angle_alpha   116.05510494
_cell_angle_beta   90.00000000
_cell_angle_gamma   90.00000000
_symmetry_Int_Tables_number   1
_chemical_formula_structural   CoH11C16NO5
_chemical_formula_sum   'Co12 H132 C192 N12 O60'
_cell_volume   65383.49364776
_cell_formula_units_Z   12
loop_
 _symmetry_equiv_pos_site_id
 _symmetry_equiv_pos_as_xyz
  1  'x, y, z'
loop_
 _atom_site_type_symbol
 _atom_site_label
 _atom_site_symmetry_multiplicity
 _atom_site_fract_x
 _atom_site_fract_y
 _atom_site_fract_z
 _atom_site_occupancy
  Co  Co0  1  0.71361000  0.37153000  0.49638000  1.0
  Co  Co1  1  0.74266000  0.42200000  0.55748000  1.0
  Co  Co2  1  0.24297000  0.46111000  0.09077000  1.0
  Co  Co3  1  0.24781000  0.53156000  0.12028000  1.0
  Co  Co4  1  0.72817000  0.09776000  0.51061000  1.0
  Co  Co5  1  0.73289000  0.10360000  0.57370000  1.0
  Co  Co6  1  0.21836000  0.60569000  0.49002000  1.0
  Co  Co7  1  0.24900000  0.55867000  0.42788000  1.0
  Co  Co8  1  0.73772000  0.48901000  0.88917000  1.0
  Co  Co9  1  0.74484000  0.41880000  0.85958000  1.0
  Co  Co10  1  0.21349000  0.86169000  0.48103000  1.0
  Co  Co11  1  0.23937000  0.85147000  0.41803000  1.0
  H  H12  1  0.79538000  0.48948000  0.68820000  1.0
  H  H13  1  0.78985000  0.48433000  0.64019000  1.0
  H  H14  1  0.64788000  0.44214000  0.63047000  1.0
  H  H15  1  0.70874000  0.41984000  0.69506000  1.0
  H  H16  1  0.73153000  0.41169000  0.73559000  1.0
  H  H17  1  0.65316000  0.44753000  0.67850000  1.0
  H  H18  1  0.78681000  0.50022000  0.77771000  1.0
  H  H19  1  0.84309000  0.45654000  0.82551000  1.0
  H  H20  1  0.80836000  0.48679000  0.85127000  1.0
  H  H21  1  0.76331000  0.50854000  0.73719000  1.0
  H  H22  1  0.76475000  0.49035000  0.81530000  1.0
  H  H23  1  0.21677000  0.62928000  0.25013000  1.0
  H  H24  1  0.21418000  0.58276000  0.20841000  1.0
  H  H25  1  0.22379000  0.62766000  0.15577000  1.0
  H  H26  1  0.18047000  0.67322000  0.28023000  1.0
  H  H27  1  0.20077000  0.71672000  0.32326000  1.0
  H  H28  1  0.22376000  0.67466000  0.19758000  1.0
  H  H29  1  0.29638000  0.74669000  0.27595000  1.0
  H  H30  1  0.33813000  0.79708000  0.35925000  1.0
  H  H31  1  0.32482000  0.82341000  0.34593000  1.0
  H  H32  1  0.27806000  0.70292000  0.23328000  1.0
  H  H33  1  0.27032000  0.79061000  0.31342000  1.0
  H  H34  1  0.79623000  0.30500000  0.57457000  1.0
  H  H35  1  0.80227000  0.35369000  0.57751000  1.0
  H  H36  1  0.70601000  0.32868000  0.50555000  1.0
  H  H37  1  0.81265000  0.25541000  0.55301000  1.0
  H  H38  1  0.79231000  0.21415000  0.56295000  1.0
  H  H39  1  0.70189000  0.27894000  0.50141000  1.0
  H  H40  1  0.64301000  0.21428000  0.53431000  1.0
  H  H41  1  0.62239000  0.15977000  0.57035000  1.0
  H  H42  1  0.62754000  0.12971000  0.53580000  1.0
  H  H43  1  0.66203000  0.25639000  0.52582000  1.0
  H  H44  1  0.66077000  0.16381000  0.52283000  1.0
  H  H45  1  0.21421000  0.55875000  0.30735000  1.0
  H  H46  1  0.20171000  0.56939000  0.35601000  1.0
  H  H47  1  0.26580000  0.48615000  0.34115000  1.0
  H  H48  1  0.19611000  0.53513000  0.26111000  1.0
  H  H49  1  0.22458000  0.53450000  0.21720000  1.0
  H  H50  1  0.27534000  0.47416000  0.29132000  1.0
  H  H51  1  0.35065000  0.48259000  0.21687000  1.0
  H  H52  1  0.37338000  0.49826000  0.14313000  1.0
  H  H53  1  0.33813000  0.46562000  0.12176000  1.0
  H  H54  1  0.32511000  0.48511000  0.26211000  1.0
  H  H55  1  0.31123000  0.46611000  0.16361000  1.0
  H  H56  1  0.69276000  0.31304000  0.73840000  1.0
  H  H57  1  0.69035000  0.36122000  0.77798000  1.0
  H  H58  1  0.72527000  0.32345000  0.83456000  1.0
  H  H59  1  0.66439000  0.26724000  0.71099000  1.0
  H  H60  1  0.68608000  0.22284000  0.66923000  1.0
  H  H61  1  0.72401000  0.27468000  0.79533000  1.0
  H  H62  1  0.79154000  0.20031000  0.71764000  1.0
  H  H63  1  0.83230000  0.14251000  0.63957000  1.0
  H  H64  1  0.80265000  0.11540000  0.64789000  1.0
  H  H65  1  0.77293000  0.24541000  0.75892000  1.0
  H  H66  1  0.75968000  0.15362000  0.68209000  1.0
  H  H67  1  0.29971000  0.66883000  0.40843000  1.0
  H  H68  1  0.31930000  0.62328000  0.41032000  1.0
  H  H69  1  0.24109000  0.65240000  0.48911000  1.0
  H  H70  1  0.30179000  0.71831000  0.42178000  1.0
  H  H71  1  0.26238000  0.75400000  0.40917000  1.0
  H  H72  1  0.22387000  0.69911000  0.48836000  1.0
  H  H73  1  0.12946000  0.74978000  0.45227000  1.0
  H  H74  1  0.10060000  0.81309000  0.41387000  1.0
  H  H75  1  0.10461000  0.83818000  0.45081000  1.0
  H  H76  1  0.16728000  0.71288000  0.46360000  1.0
  H  H77  1  0.13651000  0.80070000  0.45971000  1.0
  H  H78  1  0.07101000  0.46597000  0.42183000  1.0
  H  H79  1  0.14061000  0.49544000  0.41967000  1.0
  H  H80  1  0.08542000  0.56901000  0.49382000  1.0
  H  H81  1  0.98090000  0.46034000  0.41693000  1.0
  H  H82  1  0.91916000  0.42744000  0.42108000  1.0
  H  H83  1  0.01586000  0.53973000  0.49556000  1.0
  H  H84  1  0.94358000  0.46600000  0.51098000  1.0
  H  H85  1  0.86717000  0.37941000  0.48056000  1.0
  H  H86  1  0.88484000  0.40228000  0.51622000  1.0
  H  H87  1  0.00454000  0.49870000  0.50677000  1.0
  H  H88  1  0.86893000  0.44639000  0.50931000  1.0
  H  H89  1  0.59814000  0.49782000  0.99143000  1.0
  H  H90  1  0.66591000  0.49381000  0.96002000  1.0
  H  H91  1  0.61584000  0.40755000  0.90194000  1.0
  H  H92  1  0.56215000  0.48046000  0.02290000  1.0
  H  H93  1  0.48787000  0.49507000  0.05196000  1.0
  H  H94  1  0.54780000  0.41142000  0.93395000  1.0
  H  H95  1  0.39770000  0.45455000  0.97719000  1.0
  H  H96  1  0.30683000  0.51730000  0.03899000  1.0
  H  H97  1  0.27174000  0.48451000  0.02035000  1.0
  H  H98  1  0.47165000  0.44017000  0.94831000  1.0
  H  H99  1  0.34269000  0.45608000  0.01014000  1.0
  H  H100  1  0.91461000  0.00814000  0.46399000  1.0
  H  H101  1  0.84185000  0.03915000  0.47782000  1.0
  H  H102  1  0.86311000  0.05427000  0.56419000  1.0
  H  H103  1  0.94454000  0.96103000  0.45888000  1.0
  H  H104  1  0.02108000  0.93355000  0.44211000  1.0
  H  H105  1  0.93601000  0.02266000  0.55005000  1.0
  H  H106  1  0.09685000  0.99598000  0.51613000  1.0
  H  H107  1  0.20848000  0.94450000  0.45251000  1.0
  H  H108  1  0.22925000  0.95202000  0.48727000  1.0
  H  H109  1  0.02038000  0.02324000  0.53283000  1.0
  H  H110  1  0.14819000  0.95764000  0.50403000  1.0
  H  H111  1  0.58343000  0.45419000  0.45846000  1.0
  H  H112  1  0.64562000  0.42494000  0.46715000  1.0
  H  H113  1  0.65362000  0.48866000  0.55435000  1.0
  H  H114  1  0.56081000  0.49752000  0.45470000  1.0
  H  H115  1  0.48267000  0.51434000  0.44389000  1.0
  H  H116  1  0.59194000  0.51857000  0.54534000  1.0
  H  H117  1  0.42742000  0.53105000  0.52621000  1.0
  H  H118  1  0.30520000  0.51541000  0.47581000  1.0
  H  H119  1  0.29397000  0.54296000  0.51085000  1.0
  H  H120  1  0.50465000  0.51396000  0.53679000  1.0
  H  H121  1  0.37536000  0.55970000  0.51514000  1.0
  H  H122  1  0.04649000  0.54125000  0.05366000  1.0
  H  H123  1  0.12106000  0.54358000  0.08032000  1.0
  H  H124  1  0.09283000  0.45601000  0.07063000  1.0
  H  H125  1  0.95876000  0.53915000  0.04951000  1.0
  H  H126  1  0.89843000  0.53548000  0.01373000  1.0
  H  H127  1  0.01736000  0.45405000  0.04487000  1.0
  H  H128  1  0.93963000  0.44505000  0.96411000  1.0
  H  H129  1  0.88837000  0.47502000  0.90913000  1.0
  H  H130  1  0.88413000  0.43666000  0.89941000  1.0
  H  H131  1  0.99984000  0.44880000  0.99924000  1.0
  H  H132  1  0.86361000  0.44514000  0.94569000  1.0
  H  H133  1  0.56978000  0.99081000  0.46320000  1.0
  H  H134  1  0.63597000  0.02647000  0.47638000  1.0
  H  H135  1  0.61954000  0.04310000  0.56346000  1.0
  H  H136  1  0.48162000  0.98907000  0.46757000  1.0
  H  H137  1  0.41865000  0.95091000  0.45050000  1.0
  H  H138  1  0.55217000  0.00754000  0.55015000  1.0
  H  H139  1  0.47256000  0.91760000  0.50775000  1.0
  H  H140  1  0.38723000  0.84971000  0.44636000  1.0
  H  H141  1  0.37343000  0.85209000  0.48053000  1.0
  H  H142  1  0.53569000  0.95546000  0.52456000  1.0
  H  H143  1  0.39215000  0.90189000  0.50191000  1.0
  C  C144  1  0.72270000  0.45064000  0.60063000  1.0
  C  C145  1  0.80761000  0.40166000  0.50833000  1.0
  C  C146  1  0.68559000  0.43367000  0.51764000  1.0
  C  C147  1  0.75112000  0.37589000  0.54755000  1.0
  C  C148  1  0.22538000  0.57316000  0.15405000  1.0
  C  C149  1  0.28339000  0.49481000  0.06335000  1.0
  C  C150  1  0.16227000  0.49939000  0.08961000  1.0
  C  C151  1  0.30149000  0.50577000  0.13046000  1.0
  C  C152  1  0.76942000  0.12133000  0.61422000  1.0
  C  C153  1  0.67143000  0.06082000  0.52895000  1.0
  C  C154  1  0.80255000  0.06887000  0.53046000  1.0
  C  C155  1  0.68600000  0.13226000  0.56342000  1.0
  C  C156  1  0.23391000  0.53829000  0.38305000  1.0
  C  C157  1  0.28645000  0.55752000  0.47870000  1.0
  C  C158  1  0.16259000  0.55221000  0.45673000  1.0
  C  C159  1  0.27740000  0.60368000  0.44542000  1.0
  C  C160  1  0.71696000  0.37558000  0.83194000  1.0
  C  C161  1  0.81485000  0.45778000  0.90170000  1.0
  C  C162  1  0.68355000  0.45026000  0.90772000  1.0
  C  C163  1  0.77632000  0.44481000  0.83999000  1.0
  C  C164  1  0.27683000  0.82520000  0.37870000  1.0
  C  C165  1  0.20930000  0.90757000  0.46240000  1.0
  C  C166  1  0.31336000  0.86349000  0.46099000  1.0
  C  C167  1  0.16930000  0.83639000  0.42725000  1.0
  C  C168  1  0.72515000  0.46833000  0.68689000  1.0
  C  C169  1  0.76213000  0.48014000  0.67619000  1.0
  C  C170  1  0.71873000  0.46251000  0.63150000  1.0
  C  C171  1  0.75893000  0.47725000  0.64868000  1.0
  C  C172  1  0.77905000  0.44885000  0.78294000  1.0
  C  C173  1  0.67947000  0.45345000  0.64318000  1.0
  C  C174  1  0.72454000  0.43784000  0.71326000  1.0
  C  C175  1  0.73798000  0.43306000  0.73637000  1.0
  C  C176  1  0.76055000  0.45532000  0.75991000  1.0
  C  C177  1  0.68267000  0.45630000  0.67061000  1.0
  C  C178  1  0.76857000  0.48276000  0.76012000  1.0
  C  C179  1  0.80529000  0.46536000  0.83242000  1.0
  C  C180  1  0.75555000  0.48747000  0.73681000  1.0
  C  C181  1  0.73390000  0.46494000  0.71301000  1.0
  C  C182  1  0.22081000  0.65598000  0.22744000  1.0
  C  C183  1  0.21672000  0.62951000  0.22976000  1.0
  C  C184  1  0.21896000  0.60161000  0.17886000  1.0
  C  C185  1  0.21547000  0.60270000  0.20577000  1.0
  C  C186  1  0.26600000  0.75993000  0.32959000  1.0
  C  C187  1  0.22121000  0.62789000  0.17629000  1.0
  C  C188  1  0.20580000  0.68905000  0.27892000  1.0
  C  C189  1  0.21707000  0.71409000  0.30358000  1.0
  C  C190  1  0.24968000  0.73527000  0.30297000  1.0
  C  C191  1  0.22169000  0.65480000  0.20031000  1.0
  C  C192  1  0.27010000  0.73117000  0.27707000  1.0
  C  C193  1  0.30790000  0.80815000  0.35337000  1.0
  C  C194  1  0.25948000  0.70594000  0.25249000  1.0
  C  C195  1  0.22778000  0.68426000  0.25310000  1.0
  C  C196  1  0.74822000  0.28790000  0.53785000  1.0
  C  C197  1  0.77771000  0.30932000  0.55864000  1.0
  C  C198  1  0.75422000  0.34496000  0.54193000  1.0
  C  C199  1  0.78091000  0.33743000  0.56050000  1.0
  C  C200  1  0.70270000  0.18855000  0.55847000  1.0
  C  C201  1  0.72680000  0.32341000  0.52022000  1.0
  C  C202  1  0.77547000  0.24666000  0.54875000  1.0
  C  C203  1  0.76404000  0.22294000  0.55430000  1.0
  C  C204  1  0.71626000  0.21110000  0.54932000  1.0
  C  C205  1  0.72411000  0.29502000  0.51806000  1.0
  C  C206  1  0.68044000  0.22271000  0.53788000  1.0
  C  C207  1  0.64868000  0.14698000  0.55319000  1.0
  C  C208  1  0.69151000  0.24683000  0.53289000  1.0
  C  C209  1  0.73888000  0.25956000  0.53888000  1.0
  C  C210  1  0.24611000  0.51553000  0.29501000  1.0
  C  C211  1  0.22400000  0.54200000  0.31384000  1.0
  C  C212  1  0.23297000  0.52865000  0.35239000  1.0
  C  C213  1  0.21704000  0.54829000  0.34202000  1.0
  C  C214  1  0.30891000  0.51104000  0.18906000  1.0
  C  C215  1  0.25328000  0.50171000  0.33366000  1.0
  C  C216  1  0.23017000  0.52375000  0.25202000  1.0
  C  C217  1  0.24605000  0.52318000  0.22669000  1.0
  C  C218  1  0.28965000  0.50855000  0.21392000  1.0
  C  C219  1  0.25929000  0.49506000  0.30517000  1.0
  C  C220  1  0.31659000  0.49379000  0.22636000  1.0
  C  C221  1  0.33600000  0.48819000  0.13905000  1.0
  C  C222  1  0.30159000  0.49511000  0.25221000  1.0
  C  C223  1  0.25864000  0.51067000  0.26576000  1.0
  C  C224  1  0.70928000  0.28958000  0.76330000  1.0
  C  C225  1  0.69803000  0.31456000  0.75927000  1.0
  C  C226  1  0.70779000  0.34602000  0.80928000  1.0
  C  C227  1  0.69676000  0.34239000  0.78204000  1.0
  C  C228  1  0.75677000  0.18283000  0.66428000  1.0
  C  C229  1  0.71681000  0.32121000  0.81370000  1.0
  C  C230  1  0.69242000  0.25304000  0.71290000  1.0
  C  C231  1  0.70440000  0.22741000  0.68894000  1.0
  C  C232  1  0.74009000  0.20806000  0.69028000  1.0
  C  C233  1  0.71677000  0.29327000  0.79106000  1.0
  C  C234  1  0.76308000  0.21454000  0.71613000  1.0
  C  C235  1  0.79607000  0.13344000  0.64182000  1.0
  C  C236  1  0.75210000  0.24050000  0.73991000  1.0
  C  C237  1  0.71707000  0.26043000  0.73862000  1.0
  C  C238  1  0.25892000  0.68755000  0.44789000  1.0
  C  C239  1  0.28849000  0.66633000  0.42690000  1.0
  C  C240  1  0.28117000  0.63422000  0.44969000  1.0
  C  C241  1  0.29989000  0.64005000  0.42795000  1.0
  C  C242  1  0.16899000  0.77508000  0.42075000  1.0
  C  C243  1  0.25572000  0.65633000  0.47201000  1.0
  C  C244  1  0.26410000  0.72479000  0.42851000  1.0
  C  C245  1  0.24164000  0.74530000  0.42132000  1.0
  C  C246  1  0.19296000  0.75449000  0.42970000  1.0
  C  C247  1  0.24517000  0.68290000  0.47129000  1.0
  C  C248  1  0.16729000  0.74326000  0.44583000  1.0
  C  C249  1  0.12529000  0.82180000  0.43255000  1.0
  C  C250  1  0.18931000  0.72226000  0.45251000  1.0
  C  C251  1  0.23789000  0.71244000  0.44366000  1.0
  C  C252  1  0.03803000  0.50051000  0.45894000  1.0
  C  C253  1  0.07341000  0.48860000  0.43736000  1.0
  C  C254  1  0.11896000  0.53455000  0.45668000  1.0
  C  C255  1  0.11348000  0.50545000  0.43623000  1.0
  C  C256  1  0.89328000  0.42154000  0.46805000  1.0
  C  C257  1  0.08279000  0.54660000  0.47781000  1.0
  C  C258  1  0.97259000  0.46192000  0.43758000  1.0
  C  C259  1  0.93699000  0.44323000  0.44000000  1.0
  C  C260  1  0.92559000  0.44431000  0.46637000  1.0
  C  C261  1  0.04286000  0.52980000  0.47892000  1.0
  C  C262  1  0.94984000  0.46504000  0.49039000  1.0
  C  C263  1  0.85996000  0.40080000  0.49892000  1.0
  C  C264  1  0.98527000  0.48376000  0.48798000  1.0
  C  C265  1  0.99762000  0.48210000  0.46151000  1.0
  C  C266  1  0.56739000  0.45496000  0.96524000  1.0
  C  C267  1  0.60210000  0.47766000  0.97234000  1.0
  C  C268  1  0.64613000  0.45045000  0.92830000  1.0
  C  C269  1  0.64085000  0.47545000  0.95413000  1.0
  C  C270  1  0.39213000  0.48909000  0.03451000  1.0
  C  C271  1  0.61286000  0.42710000  0.92168000  1.0
  C  C272  1  0.52643000  0.47431000  0.01272000  1.0
  C  C273  1  0.48387000  0.48260000  0.02940000  1.0
  C  C274  1  0.43672000  0.47591000  0.01706000  1.0
  C  C275  1  0.57370000  0.42940000  0.93992000  1.0
  C  C276  1  0.43322000  0.45954000  0.98765000  1.0
  C  C277  1  0.30113000  0.49458000  0.03643000  1.0
  C  C278  1  0.47582000  0.45130000  0.97096000  1.0
  C  C279  1  0.52289000  0.45932000  0.98323000  1.0
  C  C280  1  0.93101000  0.01277000  0.50587000  1.0
  C  C281  1  0.90343000  0.01773000  0.48587000  1.0
  C  C282  1  0.84647000  0.04933000  0.52218000  1.0
  C  C283  1  0.86181000  0.03577000  0.49390000  1.0
  C  C284  1  0.11251000  0.94700000  0.46566000  1.0
  C  C285  1  0.87379000  0.04420000  0.54222000  1.0
  C  C286  1  0.97750000  0.96873000  0.47167000  1.0
  C  C287  1  0.02135000  0.95290000  0.46210000  1.0
  C  C288  1  0.06519000  0.96225000  0.47779000  1.0
  C  C289  1  0.91571000  0.02619000  0.53415000  1.0
  C  C290  1  0.06375000  0.98750000  0.50372000  1.0
  C  C291  1  0.20182000  0.93948000  0.47070000  1.0
  C  C292  1  0.01980000  0.00331000  0.51331000  1.0
  C  C293  1  0.97639000  0.99442000  0.49714000  1.0
  C  C294  1  0.58230000  0.48871000  0.50122000  1.0
  C  C295  1  0.59938000  0.46251000  0.47931000  1.0
  C  C296  1  0.65429000  0.45419000  0.51156000  1.0
  C  C297  1  0.63491000  0.44552000  0.48440000  1.0
  C  C298  1  0.39865000  0.52901000  0.47547000  1.0
  C  C299  1  0.63940000  0.48122000  0.53318000  1.0
  C  C300  1  0.53220000  0.50521000  0.47065000  1.0
  C  C301  1  0.48753000  0.51499000  0.46447000  1.0
  C  C302  1  0.44878000  0.52421000  0.48415000  1.0
  C  C303  1  0.60374000  0.49828000  0.52806000  1.0
  C  C304  1  0.45666000  0.52482000  0.51070000  1.0
  C  C305  1  0.31123000  0.53890000  0.49039000  1.0
  C  C306  1  0.50119000  0.51490000  0.51681000  1.0
  C  C307  1  0.53895000  0.50410000  0.49654000  1.0
  C  C308  1  0.02604000  0.49732000  0.04680000  1.0
  C  C309  1  0.05532000  0.52280000  0.05790000  1.0
  C  C310  1  0.11326000  0.49984000  0.07730000  1.0
  C  C311  1  0.09832000  0.52410000  0.07310000  1.0
  C  C312  1  0.88339000  0.48925000  0.96247000  1.0
  C  C313  1  0.08276000  0.47495000  0.06744000  1.0
  C  C314  1  0.95447000  0.51840000  0.03109000  1.0
  C  C315  1  0.91961000  0.51625000  0.01071000  1.0
  C  C316  1  0.91356000  0.48992000  0.98620000  1.0
  C  C317  1  0.03955000  0.47377000  0.05253000  1.0
  C  C318  1  0.94193000  0.46548000  0.98303000  1.0
  C  C319  1  0.86631000  0.45817000  0.91220000  1.0
  C  C320  1  0.97686000  0.46767000  0.00327000  1.0
  C  C321  1  0.98440000  0.49431000  0.02728000  1.0
  C  C322  1  0.55518000  0.99661000  0.50566000  1.0
  C  C323  1  0.57987000  0.00226000  0.48521000  1.0
  C  C324  1  0.63306000  0.03778000  0.52103000  1.0
  C  C325  1  0.61820000  0.02259000  0.49278000  1.0
  C  C326  1  0.40554000  0.90643000  0.46513000  1.0
  C  C327  1  0.60920000  0.03170000  0.54149000  1.0
  C  C328  1  0.47987000  0.97366000  0.47660000  1.0
  C  C329  1  0.44358000  0.95194000  0.46694000  1.0
  C  C330  1  0.44014000  0.93143000  0.47794000  1.0
  C  C331  1  0.57060000  0.01132000  0.53387000  1.0
  C  C332  1  0.47316000  0.93350000  0.49930000  1.0
  C  C333  1  0.36749000  0.86285000  0.46648000  1.0
  C  C334  1  0.50961000  0.95517000  0.50890000  1.0
  C  C335  1  0.51394000  0.97517000  0.49729000  1.0
  N  N336  1  0.78068000  0.46987000  0.81000000  1.0
  N  N337  1  0.27871000  0.78622000  0.33048000  1.0
  N  N338  1  0.67204000  0.16614000  0.54262000  1.0
  N  N339  1  0.31771000  0.48679000  0.16454000  1.0
  N  N340  1  0.76764000  0.15662000  0.66418000  1.0
  N  N341  1  0.14183000  0.79807000  0.43915000  1.0
  N  N342  1  0.87130000  0.42545000  0.49262000  1.0
  N  N343  1  0.34640000  0.47736000  0.02610000  1.0
  N  N344  1  0.15220000  0.94890000  0.48221000  1.0
  N  N345  1  0.36422000  0.54501000  0.49490000  1.0
  N  N346  1  0.86730000  0.46345000  0.94171000  1.0
  N  N347  1  0.38821000  0.89237000  0.48003000  1.0
  O  O348  1  0.79657000  0.42029000  0.53452000  1.0
  O  O349  1  0.77778000  0.38100000  0.49113000  1.0
  O  O350  1  0.70586000  0.44307000  0.54291000  1.0
  O  O351  1  0.68848000  0.40635000  0.49770000  1.0
  O  O352  1  0.69535000  0.42780000  0.58375000  1.0
  O  O353  1  0.76176000  0.45549000  0.58765000  1.0
  O  O354  1  0.72145000  0.38648000  0.53418000  1.0
  O  O355  1  0.77503000  0.39717000  0.56875000  1.0
  O  O356  1  0.27598000  0.52068000  0.08483000  1.0
  O  O357  1  0.27182000  0.46947000  0.06314000  1.0
  O  O358  1  0.18516000  0.52468000  0.10407000  1.0
  O  O359  1  0.18134000  0.47331000  0.08388000  1.0
  O  O360  1  0.22119000  0.54766000  0.15547000  1.0
  O  O361  1  0.24267000  0.57045000  0.12930000  1.0
  O  O362  1  0.25730000  0.49663000  0.11918000  1.0
  O  O363  1  0.30968000  0.53360000  0.13571000  1.0
  O  O364  1  0.68892000  0.07246000  0.55503000  1.0
  O  O365  1  0.68447000  0.06922000  0.50952000  1.0
  O  O366  1  0.78634000  0.07903000  0.55668000  1.0
  O  O367  1  0.78219000  0.07500000  0.51086000  1.0
  O  O368  1  0.77485000  0.13251000  0.59580000  1.0
  O  O369  1  0.74045000  0.09759000  0.60506000  1.0
  O  O370  1  0.72470000  0.11743000  0.54857000  1.0
  O  O371  1  0.68009000  0.12895000  0.58691000  1.0
  O  O372  1  0.28852000  0.54866000  0.45123000  1.0
  O  O373  1  0.25851000  0.57925000  0.49606000  1.0
  O  O374  1  0.19478000  0.54075000  0.43569000  1.0
  O  O375  1  0.16703000  0.57848000  0.47836000  1.0
  O  O376  1  0.21397000  0.56368000  0.40103000  1.0
  O  O377  1  0.26206000  0.52574000  0.39555000  1.0
  O  O378  1  0.23815000  0.59439000  0.45409000  1.0
  O  O379  1  0.29904000  0.58137000  0.42388000  1.0
  O  O380  1  0.79381000  0.43187000  0.88763000  1.0
  O  O381  1  0.79720000  0.48251000  0.90296000  1.0
  O  O382  1  0.69600000  0.42503000  0.88646000  1.0
  O  O383  1  0.70127000  0.47607000  0.91157000  1.0
  O  O384  1  0.70092000  0.40005000  0.83102000  1.0
  O  O385  1  0.74974000  0.38049000  0.85245000  1.0
  O  O386  1  0.74009000  0.45337000  0.85889000  1.0
  O  O387  1  0.79113000  0.41752000  0.83350000  1.0
  O  O388  1  0.21800000  0.89029000  0.43558000  1.0
  O  O389  1  0.20963000  0.89899000  0.48262000  1.0
  O  O390  1  0.30015000  0.86222000  0.43637000  1.0
  O  O391  1  0.28247000  0.86219000  0.47988000  1.0
  O  O392  1  0.26315000  0.81471000  0.39678000  1.0
  O  O393  1  0.26551000  0.85343000  0.38716000  1.0
  O  O394  1  0.20966000  0.84267000  0.44294000  1.0
  O  O395  1  0.17665000  0.83934000  0.40360000  1.0
  O  O396  1  0.79519000  0.42227000  0.77672000  1.0
  O  O397  1  0.27173000  0.75532000  0.35203000  1.0
  O  O398  1  0.71887000  0.19129000  0.58297000  1.0
  O  O399  1  0.31602000  0.53738000  0.19080000  1.0
  O  O400  1  0.76394000  0.18676000  0.64158000  1.0
  O  O401  1  0.17763000  0.77225000  0.39518000  1.0
  O  O402  1  0.88983000  0.39606000  0.44578000  1.0
  O  O403  1  0.39672000  0.51419000  0.05712000  1.0
  O  O404  1  0.11654000  0.93254000  0.43812000  1.0
  O  O405  1  0.38560000  0.51416000  0.44894000  1.0
  O  O406  1  0.87911000  0.51345000  0.95935000  1.0
  O  O407  1  0.39477000  0.89639000  0.43820000  1.0
