# generated using pymatgen
data_Cu6Mo2H50C80S6I17N15
_symmetry_space_group_name_H-M   'P 1'
_cell_length_a   32.42190000
_cell_length_b   33.02590000
_cell_length_c   47.09750000
_cell_angle_alpha   90.00000000
_cell_angle_beta   90.00000000
_cell_angle_gamma   90.00000000
_symmetry_Int_Tables_number   1
_chemical_formula_structural   Cu6Mo2H50C80S6I17N15
_chemical_formula_sum   'Cu24 Mo8 H200 C320 S24 I68 N60'
_cell_volume   50430.23341552
_cell_formula_units_Z   4
loop_
 _symmetry_equiv_pos_site_id
 _symmetry_equiv_pos_as_xyz
  1  'x, y, z'
loop_
 _atom_site_type_symbol
 _atom_site_label
 _atom_site_symmetry_multiplicity
 _atom_site_fract_x
 _atom_site_fract_y
 _atom_site_fract_z
 _atom_site_occupancy
  Cu  Cu0  1  0.80349000  0.87182000  0.85719000  1.0
  Cu  Cu1  1  0.89569000  0.80249000  0.85379000  1.0
  Cu  Cu2  1  0.84598000  0.83391000  0.92452000  1.0
  Cu  Cu3  1  0.64246000  0.00782000  0.12998000  1.0
  Cu  Cu4  1  0.55466000  0.95391000  0.16653000  1.0
  Cu  Cu5  1  0.61237000  0.90431000  0.10607000  1.0
  Cu  Cu6  1  0.83174000  0.43583000  0.62672000  1.0
  Cu  Cu7  1  0.91201000  0.49384000  0.66915000  1.0
  Cu  Cu8  1  0.86226000  0.54232000  0.60410000  1.0
  Cu  Cu9  1  0.65759000  0.57536000  0.36220000  1.0
  Cu  Cu10  1  0.57523000  0.65433000  0.35382000  1.0
  Cu  Cu11  1  0.60506000  0.61742000  0.42571000  1.0
  Cu  Cu12  1  0.13841000  0.05217000  0.11924000  1.0
  Cu  Cu13  1  0.06112000  0.13840000  0.13172000  1.0
  Cu  Cu14  1  0.10253000  0.11711000  0.05702000  1.0
  Cu  Cu15  1  0.30594000  0.94353000  0.84523000  1.0
  Cu  Cu16  1  0.39379000  0.00449000  0.81250000  1.0
  Cu  Cu17  1  0.35565000  0.02819000  0.88591000  1.0
  Cu  Cu18  1  0.16808000  0.50996000  0.35214000  1.0
  Cu  Cu19  1  0.07525000  0.45558000  0.31292000  1.0
  Cu  Cu20  1  0.11855000  0.41971000  0.38235000  1.0
  Cu  Cu21  1  0.32973000  0.38239000  0.61320000  1.0
  Cu  Cu22  1  0.41798000  0.30848000  0.61799000  1.0
  Cu  Cu23  1  0.35701000  0.32232000  0.54937000  1.0
  Mo  Mo24  1  0.81501000  0.79104000  0.87644000  1.0
  Mo  Mo25  1  0.63939000  0.93323000  0.15986000  1.0
  Mo  Mo26  1  0.82859000  0.51135000  0.65504000  1.0
  Mo  Mo27  1  0.65277000  0.65627000  0.38233000  1.0
  Mo  Mo28  1  0.14196000  0.13608000  0.10877000  1.0
  Mo  Mo29  1  0.31404000  0.02702000  0.83242000  1.0
  Mo  Mo30  1  0.15637000  0.43321000  0.32808000  1.0
  Mo  Mo31  1  0.33304000  0.29715000  0.60469000  1.0
  H  H32  1  0.86801000  0.83644000  0.98656000  1.0
  H  H33  1  0.83962000  0.80358000  0.02968000  1.0
  H  H34  1  0.75415000  0.73816000  0.97650000  1.0
  H  H35  1  0.78447000  0.77187000  0.93462000  1.0
  H  H36  1  0.81976000  0.90641000  0.95369000  1.0
  H  H37  1  0.84927000  0.97287000  0.96640000  1.0
  H  H38  1  0.96317000  0.93696000  0.92637000  1.0
  H  H39  1  0.93143000  0.87086000  0.91502000  1.0
  H  H40  1  0.73075000  0.82020000  0.84573000  1.0
  H  H41  1  0.66064000  0.83026000  0.82614000  1.0
  H  H42  1  0.68905000  0.95668000  0.81425000  1.0
  H  H43  1  0.75852000  0.94414000  0.83419000  1.0
  H  H44  1  0.85073000  0.72800000  0.84509000  1.0
  H  H45  1  0.86773000  0.65756000  0.83205000  1.0
  H  H46  1  0.99283000  0.69534000  0.81550000  1.0
  H  H47  1  0.97330000  0.76525000  0.82920000  1.0
  H  H48  1  0.97102000  0.81674000  0.88779000  1.0
  H  H49  1  0.03038000  0.86322000  0.88653000  1.0
  H  H50  1  0.98077000  0.91642000  0.81023000  1.0
  H  H51  1  0.92086000  0.87026000  0.81393000  1.0
  H  H52  1  0.59747000  0.83347000  0.06766000  1.0
  H  H53  1  0.64081000  0.77639000  0.05136000  1.0
  H  H54  1  0.73317000  0.81161000  0.11253000  1.0
  H  H55  1  0.68789000  0.86755000  0.12773000  1.0
  H  H56  1  0.52831000  0.88239000  0.08716000  1.0
  H  H57  1  0.49452000  0.88083000  0.04031000  1.0
  H  H58  1  0.59183000  0.95649000  0.00756000  1.0
  H  H59  1  0.62379000  0.95641000  0.05477000  1.0
  H  H60  1  0.71168000  0.98854000  0.16692000  1.0
  H  H61  1  0.77919000  0.01863000  0.17909000  1.0
  H  H62  1  0.75285000  0.11706000  0.12173000  1.0
  H  H63  1  0.68571000  0.08478000  0.11055000  1.0
  H  H64  1  0.59248000  0.95819000  0.22396000  1.0
  H  H65  1  0.57611000  0.92847000  0.27076000  1.0
  H  H66  1  0.46358000  0.88042000  0.23532000  1.0
  H  H67  1  0.48203000  0.91152000  0.18922000  1.0
  H  H68  1  0.49272000  0.92335000  0.12372000  1.0
  H  H69  1  0.42880000  0.95037000  0.10257000  1.0
  H  H70  1  0.44999000  0.06281000  0.14672000  1.0
  H  H71  1  0.51415000  0.03386000  0.16653000  1.0
  H  H72  1  0.86270000  0.60908000  0.56004000  1.0
  H  H73  1  0.81145000  0.66104000  0.54591000  1.0
  H  H74  1  0.73585000  0.62456000  0.61687000  1.0
  H  H75  1  0.78905000  0.57461000  0.62988000  1.0
  H  H76  1  0.85499000  0.50938000  0.54673000  1.0
  H  H77  1  0.89683000  0.51419000  0.50333000  1.0
  H  H78  1  0.99784000  0.55942000  0.55372000  1.0
  H  H79  1  0.95382000  0.55410000  0.59623000  1.0
  H  H80  1  0.76281000  0.43934000  0.66800000  1.0
  H  H81  1  0.68751000  0.44029000  0.66096000  1.0
  H  H82  1  0.70549000  0.38771000  0.57815000  1.0
  H  H83  1  0.78044000  0.38769000  0.58689000  1.0
  H  H84  1  0.86848000  0.48862000  0.72571000  1.0
  H  H85  1  0.88005000  0.51937000  0.77303000  1.0
  H  H86  1  0.99067000  0.57525000  0.74057000  1.0
  H  H87  1  0.97643000  0.54440000  0.69400000  1.0
  H  H88  1  0.98632000  0.52961000  0.64170000  1.0
  H  H89  1  0.05946000  0.51146000  0.64589000  1.0
  H  H90  1  0.02319000  0.39082000  0.67008000  1.0
  H  H91  1  0.95060000  0.41161000  0.66618000  1.0
  H  H92  1  0.58683000  0.59863000  0.48784000  1.0
  H  H93  1  0.61609000  0.62409000  0.53320000  1.0
  H  H94  1  0.68980000  0.70878000  0.48528000  1.0
  H  H95  1  0.65891000  0.68209000  0.44128000  1.0
  H  H96  1  0.60880000  0.52989000  0.43850000  1.0
  H  H97  1  0.55917000  0.47341000  0.44112000  1.0
  H  H98  1  0.46151000  0.55712000  0.42058000  1.0
  H  H99  1  0.51314000  0.61190000  0.41794000  1.0
  H  H100  1  0.73856000  0.61425000  0.37092000  1.0
  H  H101  1  0.80924000  0.58751000  0.37583000  1.0
  H  H102  1  0.76808000  0.47545000  0.33840000  1.0
  H  H103  1  0.69816000  0.50421000  0.33455000  1.0
  H  H104  1  0.61061000  0.73684000  0.35921000  1.0
  H  H105  1  0.58762000  0.80527000  0.34483000  1.0
  H  H106  1  0.49010000  0.75023000  0.29590000  1.0
  H  H107  1  0.51537000  0.68308000  0.31094000  1.0
  H  H108  1  0.49146000  0.66118000  0.37382000  1.0
  H  H109  1  0.42443000  0.63837000  0.35560000  1.0
  H  H110  1  0.48772000  0.54965000  0.30448000  1.0
  H  H111  1  0.55377000  0.57647000  0.32210000  1.0
  H  H112  1  0.17399000  0.16579000  0.06212000  1.0
  H  H113  1  0.22375000  0.19840000  0.02999000  1.0
  H  H114  1  0.14449000  0.16829000  0.95945000  1.0
  H  H115  1  0.09615000  0.13574000  0.99325000  1.0
  H  H116  1  0.10519000  0.05613000  0.01281000  1.0
  H  H117  1  0.05422000  0.02746000  0.97954000  1.0
  H  H118  1  0.95717000  0.07694000  0.03168000  1.0
  H  H119  1  0.01003000  0.10528000  0.06345000  1.0
  H  H120  1  0.20680000  0.08967000  0.15163000  1.0
  H  H121  1  0.28219000  0.08658000  0.14551000  1.0
  H  H122  1  0.26689000  0.97696000  0.09702000  1.0
  H  H123  1  0.19173000  0.98222000  0.10415000  1.0
  H  H124  1  0.12273000  0.19007000  0.15926000  1.0
  H  H125  1  0.12543000  0.26285000  0.17106000  1.0
  H  H126  1  0.99414000  0.26982000  0.15718000  1.0
  H  H127  1  0.99409000  0.19716000  0.14560000  1.0
  H  H128  1  0.98390000  0.15155000  0.09978000  1.0
  H  H129  1  0.91105000  0.14119000  0.11160000  1.0
  H  H130  1  0.94814000  0.05896000  0.17787000  1.0
  H  H131  1  0.02074000  0.07113000  0.16483000  1.0
  H  H132  1  0.29953000  0.08948000  0.87031000  1.0
  H  H133  1  0.26820000  0.14999000  0.89189000  1.0
  H  H134  1  0.34282000  0.13031000  0.96653000  1.0
  H  H135  1  0.37271000  0.06942000  0.94325000  1.0
  H  H136  1  0.44754000  0.02550000  0.88767000  1.0
  H  H137  1  0.49969000  0.98492000  0.91284000  1.0
  H  H138  1  0.40159000  0.91898000  0.95393000  1.0
  H  H139  1  0.35109000  0.96104000  0.92798000  1.0
  H  H140  1  0.24274000  0.95366000  0.79868000  1.0
  H  H141  1  0.16657000  0.95402000  0.79876000  1.0
  H  H142  1  0.16879000  0.90161000  0.88256000  1.0
  H  H143  1  0.24479000  0.90166000  0.88062000  1.0
  H  H144  1  0.40372000  0.09230000  0.80092000  1.0
  H  H145  1  0.43962000  0.13178000  0.76486000  1.0
  H  H146  1  0.45203000  0.02358000  0.71426000  1.0
  H  H147  1  0.41713000  0.98509000  0.75256000  1.0
  H  H148  1  0.47626000  0.02675000  0.82829000  1.0
  H  H149  1  0.54410000  0.99535000  0.82111000  1.0
  H  H150  1  0.48370000  0.88015000  0.81007000  1.0
  H  H151  1  0.41670000  0.91437000  0.81596000  1.0
  H  H152  1  0.09761000  0.37229000  0.43571000  1.0
  H  H153  1  0.12428000  0.30825000  0.45635000  1.0
  H  H154  1  0.20215000  0.29404000  0.38269000  1.0
  H  H155  1  0.17379000  0.35773000  0.36359000  1.0
  H  H156  1  0.13209000  0.46700000  0.43486000  1.0
  H  H157  1  0.09118000  0.51390000  0.46454000  1.0
  H  H158  1  0.98666000  0.49252000  0.41036000  1.0
  H  H159  1  0.02940000  0.44526000  0.38192000  1.0
  H  H160  1  0.24124000  0.46914000  0.32906000  1.0
  H  H161  1  0.31059000  0.48960000  0.31259000  1.0
  H  H162  1  0.28092000  0.61314000  0.33410000  1.0
  H  H163  1  0.21213000  0.59022000  0.35023000  1.0
  H  H164  1  0.13061000  0.40938000  0.27788000  1.0
  H  H165  1  0.12906000  0.37748000  0.23053000  1.0
  H  H166  1  0.00634000  0.42506000  0.21845000  1.0
  H  H167  1  0.01099000  0.45741000  0.26574000  1.0
  H  H168  1  0.99883000  0.41462000  0.31193000  1.0
  H  H169  1  0.92838000  0.42272000  0.33030000  1.0
  H  H170  1  0.96349000  0.53857000  0.36465000  1.0
  H  H171  1  0.03377000  0.52888000  0.34448000  1.0
  H  H172  1  0.28520000  0.27083000  0.55455000  1.0
  H  H173  1  0.23758000  0.23751000  0.52117000  1.0
  H  H174  1  0.32128000  0.26650000  0.45288000  1.0
  H  H175  1  0.36710000  0.29996000  0.48781000  1.0
  H  H176  1  0.34008000  0.40627000  0.52936000  1.0
  H  H177  1  0.36970000  0.44872000  0.49176000  1.0
  H  H178  1  0.47275000  0.36660000  0.48668000  1.0
  H  H179  1  0.44123000  0.32566000  0.52470000  1.0
  H  H180  1  0.26019000  0.33739000  0.63778000  1.0
  H  H181  1  0.19194000  0.35396000  0.65815000  1.0
  H  H182  1  0.21882000  0.48065000  0.64606000  1.0
  H  H183  1  0.28659000  0.46152000  0.62575000  1.0
  H  H184  1  0.43035000  0.22117000  0.60546000  1.0
  H  H185  1  0.45678000  0.16213000  0.63140000  1.0
  H  H186  1  0.47393000  0.23791000  0.70503000  1.0
  H  H187  1  0.44690000  0.29609000  0.67747000  1.0
  H  H188  1  0.48000000  0.32275000  0.57141000  1.0
  H  H189  1  0.54382000  0.36291000  0.56682000  1.0
  H  H190  1  0.52074000  0.41347000  0.64970000  1.0
  H  H191  1  0.45693000  0.37271000  0.65252000  1.0
  H  H192  1  0.93329000  0.13417000  0.92688000  1.0
  H  H193  1  0.90027000  0.10352000  0.90744000  1.0
  H  H194  1  0.57552000  0.81780000  0.94270000  1.0
  H  H195  1  0.54517000  0.82831000  0.91318000  1.0
  H  H196  1  0.95903000  0.66380000  0.46517000  1.0
  H  H197  1  0.98704000  0.65313000  0.43473000  1.0
  H  H198  1  0.39181000  0.39312000  0.38175000  1.0
  H  H199  1  0.42062000  0.42799000  0.36253000  1.0
  H  H200  1  0.78882000  0.64210000  0.06779000  1.0
  H  H201  1  0.75103000  0.64929000  0.09363000  1.0
  H  H202  1  0.65727000  0.78566000  0.58211000  1.0
  H  H203  1  0.69892000  0.77911000  0.60501000  1.0
  H  H204  1  0.29630000  0.29829000  0.93164000  1.0
  H  H205  1  0.25374000  0.31269000  0.95185000  1.0
  H  H206  1  0.16762000  0.14253000  0.41888000  1.0
  H  H207  1  0.20809000  0.12608000  0.44034000  1.0
  H  H208  1  0.56729000  0.89466000  0.71643000  1.0
  H  H209  1  0.61906000  0.88160000  0.71790000  1.0
  H  H210  1  0.80863000  0.16987000  0.22811000  1.0
  H  H211  1  0.86130000  0.17900000  0.22705000  1.0
  H  H212  1  0.62518000  0.53889000  0.57554000  1.0
  H  H213  1  0.57253000  0.53085000  0.57197000  1.0
  H  H214  1  0.82808000  0.44455000  0.44359000  1.0
  H  H215  1  0.87825000  0.42674000  0.44043000  1.0
  H  H216  1  0.34584000  0.09983000  0.03565000  1.0
  H  H217  1  0.39879000  0.09220000  0.03673000  1.0
  H  H218  1  0.03054000  0.04336000  0.86864000  1.0
  H  H219  1  0.08266000  0.05463000  0.86636000  1.0
  H  H220  1  0.40067000  0.61185000  0.22740000  1.0
  H  H221  1  0.34885000  0.59886000  0.22553000  1.0
  H  H222  1  0.16092000  0.44445000  0.75545000  1.0
  H  H223  1  0.10848000  0.45419000  0.75753000  1.0
  H  H224  1  0.99513000  0.55525000  0.87802000  1.0
  H  H225  1  0.99537000  0.51232000  0.85663000  1.0
  H  H226  1  0.44260000  0.88323000  0.36853000  1.0
  H  H227  1  0.43605000  0.92497000  0.34642000  1.0
  H  H228  1  0.07725000  0.38958000  0.09699000  1.0
  H  H229  1  0.07941000  0.43415000  0.11664000  1.0
  H  H230  1  0.59989000  0.08872000  0.70894000  1.0
  H  H231  1  0.60649000  0.13016000  0.68658000  1.0
  C  C232  1  0.84355000  0.81438000  0.98469000  1.0
  C  C233  1  0.82768000  0.79566000  0.00895000  1.0
  C  C234  1  0.79492000  0.76821000  0.00615000  1.0
  C  C235  1  0.77969000  0.75893000  0.97914000  1.0
  C  C236  1  0.79657000  0.77813000  0.95553000  1.0
  C  C237  1  0.85103000  0.91361000  0.94759000  1.0
  C  C238  1  0.86781000  0.95110000  0.95490000  1.0
  C  C239  1  0.90822000  0.96036000  0.94672000  1.0
  C  C240  1  0.93153000  0.93102000  0.93234000  1.0
  C  C241  1  0.91359000  0.89366000  0.92570000  1.0
  C  C242  1  0.72120000  0.84994000  0.83880000  1.0
  C  C243  1  0.68136000  0.85580000  0.82812000  1.0
  C  C244  1  0.66928000  0.89445000  0.81904000  1.0
  C  C245  1  0.69729000  0.92664000  0.82145000  1.0
  C  C246  1  0.73683000  0.91945000  0.83232000  1.0
  C  C247  1  0.88149000  0.72061000  0.83796000  1.0
  C  C248  1  0.89115000  0.68083000  0.83066000  1.0
  C  C249  1  0.93160000  0.67124000  0.82278000  1.0
  C  C250  1  0.96131000  0.70207000  0.82139000  1.0
  C  C251  1  0.95031000  0.74157000  0.82905000  1.0
  C  C252  1  0.97284000  0.83930000  0.87124000  1.0
  C  C253  1  0.00694000  0.86519000  0.87022000  1.0
  C  C254  1  0.01023000  0.89362000  0.84829000  1.0
  C  C255  1  0.97908000  0.89498000  0.82756000  1.0
  C  C256  1  0.94484000  0.86917000  0.82983000  1.0
  C  C257  1  0.62668000  0.82759000  0.07784000  1.0
  C  C258  1  0.65109000  0.79526000  0.06877000  1.0
  C  C259  1  0.69022000  0.78986000  0.08083000  1.0
  C  C260  1  0.70293000  0.81500000  0.10307000  1.0
  C  C261  1  0.67747000  0.84671000  0.11157000  1.0
  C  C262  1  0.54059000  0.90058000  0.07009000  1.0
  C  C263  1  0.52174000  0.89927000  0.04341000  1.0
  C  C264  1  0.54077000  0.91853000  0.02038000  1.0
  C  C265  1  0.57629000  0.94166000  0.02505000  1.0
  C  C266  1  0.59423000  0.94197000  0.05200000  1.0
  C  C267  1  0.72110000  0.01663000  0.15712000  1.0
  C  C268  1  0.75951000  0.03337000  0.16367000  1.0
  C  C269  1  0.77142000  0.06991000  0.15101000  1.0
  C  C270  1  0.74470000  0.08852000  0.13151000  1.0
  C  C271  1  0.70648000  0.07060000  0.12549000  1.0
  C  C272  1  0.56384000  0.94204000  0.22691000  1.0
  C  C273  1  0.55473000  0.92499000  0.25328000  1.0
  C  C274  1  0.51857000  0.90226000  0.25643000  1.0
  C  C275  1  0.49159000  0.89803000  0.23340000  1.0
  C  C276  1  0.50183000  0.91576000  0.20744000  1.0
  C  C277  1  0.48388000  0.95423000  0.12797000  1.0
  C  C278  1  0.44709000  0.96925000  0.11650000  1.0
  C  C279  1  0.43424000  0.00858000  0.12332000  1.0
  C  C280  1  0.45896000  0.03222000  0.14124000  1.0
  C  C281  1  0.49568000  0.01613000  0.15204000  1.0
  C  C282  1  0.83554000  0.61392000  0.57279000  1.0
  C  C283  1  0.80646000  0.64305000  0.56481000  1.0
  C  C284  1  0.76978000  0.64661000  0.58045000  1.0
  C  C285  1  0.76402000  0.62265000  0.60460000  1.0
  C  C286  1  0.79407000  0.59449000  0.61200000  1.0
  C  C287  1  0.88699000  0.51819000  0.54832000  1.0
  C  C288  1  0.91064000  0.52119000  0.52368000  1.0
  C  C289  1  0.95056000  0.53712000  0.52530000  1.0
  C  C290  1  0.96726000  0.54654000  0.55195000  1.0
  C  C291  1  0.94239000  0.54327000  0.57611000  1.0
  C  C292  1  0.74982000  0.42532000  0.64930000  1.0
  C  C293  1  0.70702000  0.42623000  0.64513000  1.0
  C  C294  1  0.69056000  0.41394000  0.61896000  1.0
  C  C295  1  0.71710000  0.39679000  0.59874000  1.0
  C  C296  1  0.75971000  0.39636000  0.60380000  1.0
  C  C297  1  0.89537000  0.50720000  0.72936000  1.0
  C  C298  1  0.90182000  0.52476000  0.75602000  1.0
  C  C299  1  0.93645000  0.54947000  0.76031000  1.0
  C  C300  1  0.96382000  0.55616000  0.73785000  1.0
  C  C301  1  0.95596000  0.53842000  0.71156000  1.0
  C  C302  1  0.99446000  0.49849000  0.64591000  1.0
  C  C303  1  0.03624000  0.48822000  0.64856000  1.0
  C  C304  1  0.04717000  0.44968000  0.65851000  1.0
  C  C305  1  0.01590000  0.42070000  0.66208000  1.0
  C  C306  1  0.97445000  0.43242000  0.65961000  1.0
  C  C307  1  0.60867000  0.62336000  0.48772000  1.0
  C  C308  1  0.62521000  0.63773000  0.51327000  1.0
  C  C309  1  0.65506000  0.66850000  0.51250000  1.0
  C  C310  1  0.66660000  0.68526000  0.48643000  1.0
  C  C311  1  0.64918000  0.67025000  0.46159000  1.0
  C  C312  1  0.57656000  0.53545000  0.43424000  1.0
  C  C313  1  0.54843000  0.50356000  0.43596000  1.0
  C  C314  1  0.50656000  0.51103000  0.43095000  1.0
  C  C315  1  0.49372000  0.55047000  0.42440000  1.0
  C  C316  1  0.52299000  0.58143000  0.42264000  1.0
  C  C317  1  0.74590000  0.58473000  0.36243000  1.0
  C  C318  1  0.78598000  0.56954000  0.36521000  1.0
  C  C319  1  0.79408000  0.52937000  0.35743000  1.0
  C  C320  1  0.76286000  0.50672000  0.34425000  1.0
  C  C321  1  0.72317000  0.52301000  0.34203000  1.0
  C  C322  1  0.58508000  0.74019000  0.34465000  1.0
  C  C323  1  0.57193000  0.77881000  0.33665000  1.0
  C  C324  1  0.53690000  0.78275000  0.31945000  1.0
  C  C325  1  0.51722000  0.74796000  0.30921000  1.0
  C  C326  1  0.53156000  0.70998000  0.31761000  1.0
  C  C327  1  0.49025000  0.63527000  0.35983000  1.0
  C  C328  1  0.45215000  0.62249000  0.34929000  1.0
  C  C329  1  0.45076000  0.59215000  0.32854000  1.0
  C  C330  1  0.48771000  0.57299000  0.32061000  1.0
  C  C331  1  0.52533000  0.58768000  0.33100000  1.0
  C  C332  1  0.16739000  0.16746000  0.03968000  1.0
  C  C333  1  0.19537000  0.18601000  0.02154000  1.0
  C  C334  1  0.18767000  0.18585000  0.99236000  1.0
  C  C335  1  0.15084000  0.16906000  0.98200000  1.0
  C  C336  1  0.12365000  0.15049000  0.00102000  1.0
  C  C337  1  0.07265000  0.05888000  0.01742000  1.0
  C  C338  1  0.04380000  0.04272000  0.99857000  1.0
  C  C339  1  0.00183000  0.05017000  0.00311000  1.0
  C  C340  1  0.98943000  0.07051000  0.02781000  1.0
  C  C341  1  0.01938000  0.08657000  0.04591000  1.0
  C  C342  1  0.22041000  0.06357000  0.14147000  1.0
  C  C343  1  0.26325000  0.06198000  0.13773000  1.0
  C  C344  1  0.28048000  0.03136000  0.12082000  1.0
  C  C345  1  0.25467000  0.00056000  0.11056000  1.0
  C  C346  1  0.21197000  0.00329000  0.11484000  1.0
  C  C347  1  0.09449000  0.20739000  0.16028000  1.0
  C  C348  1  0.09604000  0.24863000  0.16664000  1.0
  C  C349  1  0.05991000  0.27171000  0.16485000  1.0
  C  C350  1  0.02241000  0.25255000  0.15884000  1.0
  C  C351  1  0.02229000  0.21126000  0.15256000  1.0
  C  C352  1  0.97590000  0.12908000  0.11550000  1.0
  C  C353  1  0.93435000  0.12354000  0.12245000  1.0
  C  C354  1  0.92386000  0.09930000  0.14574000  1.0
  C  C355  1  0.95519000  0.07752000  0.15957000  1.0
  C  C356  1  0.99651000  0.08420000  0.15204000  1.0
  C  C357  1  0.30913000  0.09908000  0.89122000  1.0
  C  C358  1  0.29167000  0.13334000  0.90334000  1.0
  C  C359  1  0.30350000  0.14479000  0.93070000  1.0
  C  C360  1  0.33360000  0.12222000  0.94519000  1.0
  C  C361  1  0.35028000  0.08778000  0.93219000  1.0
  C  C362  1  0.43768000  0.00185000  0.90195000  1.0
  C  C363  1  0.46723000  0.97914000  0.91640000  1.0
  C  C364  1  0.45442000  0.94887000  0.93523000  1.0
  C  C365  1  0.41222000  0.94218000  0.93945000  1.0
  C  C366  1  0.38368000  0.96574000  0.92461000  1.0
  C  C367  1  0.22628000  0.94016000  0.81622000  1.0
  C  C368  1  0.18302000  0.94046000  0.81635000  1.0
  C  C369  1  0.16167000  0.92769000  0.84072000  1.0
  C  C370  1  0.18421000  0.91110000  0.86330000  1.0
  C  C371  1  0.22737000  0.91101000  0.86218000  1.0
  C  C372  1  0.41343000  0.07734000  0.78175000  1.0
  C  C373  1  0.43391000  0.09988000  0.76122000  1.0
  C  C374  1  0.44883000  0.08062000  0.73689000  1.0
  C  C375  1  0.44086000  0.03922000  0.73292000  1.0
  C  C376  1  0.42084000  0.01749000  0.75443000  1.0
  C  C377  1  0.47827000  0.99425000  0.82603000  1.0
  C  C378  1  0.51688000  0.97640000  0.82176000  1.0
  C  C379  1  0.51930000  0.93520000  0.81495000  1.0
  C  C380  1  0.48295000  0.91198000  0.81553000  1.0
  C  C381  1  0.44476000  0.93129000  0.81923000  1.0
  C  C382  1  0.11994000  0.35440000  0.42418000  1.0
  C  C383  1  0.13477000  0.31816000  0.43567000  1.0
  C  C384  1  0.16498000  0.29630000  0.42082000  1.0
  C  C385  1  0.17851000  0.31013000  0.39437000  1.0
  C  C386  1  0.16278000  0.34620000  0.38368000  1.0
  C  C387  1  0.10019000  0.47277000  0.42963000  1.0
  C  C388  1  0.07703000  0.49927000  0.44644000  1.0
  C  C389  1  0.03579000  0.50695000  0.43939000  1.0
  C  C390  1  0.01848000  0.48715000  0.41602000  1.0
  C  C391  1  0.04272000  0.46083000  0.39979000  1.0
  C  C392  1  0.25048000  0.50052000  0.33034000  1.0
  C  C393  1  0.28980000  0.51204000  0.32127000  1.0
  C  C394  1  0.30114000  0.55292000  0.32244000  1.0
  C  C395  1  0.27313000  0.58130000  0.33333333  1.0
  C  C396  1  0.23409000  0.56843000  0.34222000  1.0
  C  C397  1  0.10379000  0.41293000  0.26452000  1.0
  C  C398  1  0.10280000  0.39484000  0.23785000  1.0
  C  C399  1  0.06740000  0.39871000  0.22109000  1.0
  C  C400  1  0.03396000  0.42152000  0.23110000  1.0
  C  C401  1  0.03654000  0.43971000  0.25784000  1.0
  C  C402  1  0.99066000  0.44208000  0.32307000  1.0
  C  C403  1  0.95072000  0.44666000  0.33347000  1.0
  C  C404  1  0.94081000  0.48091000  0.34949000  1.0
  C  C405  1  0.97056000  0.51156000  0.35266000  1.0
  C  C406  1  0.01033000  0.50609000  0.34131000  1.0
  C  C407  1  0.29327000  0.26869000  0.53235000  1.0
  C  C408  1  0.26654000  0.24965000  0.51352000  1.0
  C  C409  1  0.27599000  0.24956000  0.48455000  1.0
  C  C410  1  0.31355000  0.26592000  0.47523000  1.0
  C  C411  1  0.33930000  0.28505000  0.49486000  1.0
  C  C412  1  0.37024000  0.39897000  0.52116000  1.0
  C  C413  1  0.38689000  0.42294000  0.49960000  1.0
  C  C414  1  0.42350000  0.41081000  0.48637000  1.0
  C  C415  1  0.44465000  0.37690000  0.49676000  1.0
  C  C416  1  0.42701000  0.35389000  0.51852000  1.0
  C  C417  1  0.25083000  0.36866000  0.63980000  1.0
  C  C418  1  0.21192000  0.37804000  0.65082000  1.0
  C  C419  1  0.19984000  0.41865000  0.65323000  1.0
  C  C420  1  0.22701000  0.44902000  0.64404000  1.0
  C  C421  1  0.26568000  0.43826000  0.63304000  1.0
  C  C422  1  0.43960000  0.22467000  0.62730000  1.0
  C  C423  1  0.45462000  0.19116000  0.64197000  1.0
  C  C424  1  0.46730000  0.19570000  0.67014000  1.0
  C  C425  1  0.46421000  0.23369000  0.68325000  1.0
  C  C426  1  0.44896000  0.26653000  0.66773000  1.0
  C  C427  1  0.48845000  0.34352000  0.58810000  1.0
  C  C428  1  0.52516000  0.36560000  0.58579000  1.0
  C  C429  1  0.53747000  0.39087000  0.60814000  1.0
  C  C430  1  0.51225000  0.39391000  0.63221000  1.0
  C  C431  1  0.47567000  0.37147000  0.63358000  1.0
  C  C432  1  0.92570000  0.00090000  0.95265000  1.0
  C  C433  1  0.95470000  0.00583000  0.97467000  1.0
  C  C434  1  0.97215000  0.04414000  0.97973000  1.0
  C  C435  1  0.96184000  0.07740000  0.96228000  1.0
  C  C436  1  0.93188000  0.07297000  0.94063000  1.0
  C  C437  1  0.91322000  0.03465000  0.93629000  1.0
  C  C438  1  0.48527000  0.92342000  0.94968000  1.0
  C  C439  1  0.49728000  0.93255000  0.97767000  1.0
  C  C440  1  0.52776000  0.90910000  0.99105000  1.0
  C  C441  1  0.54662000  0.87664000  0.97642000  1.0
  C  C442  1  0.53443000  0.86719000  0.94826000  1.0
  C  C443  1  0.50324000  0.89062000  0.93506000  1.0
  C  C444  1  0.01083000  0.53563000  0.45636000  1.0
  C  C445  1  0.99446000  0.52331000  0.48270000  1.0
  C  C446  1  0.97120000  0.55068000  0.49903000  1.0
  C  C447  1  0.96509000  0.59080000  0.48954000  1.0
  C  C448  1  0.98101000  0.60329000  0.46295000  1.0
  C  C449  1  0.00295000  0.57508000  0.44604000  1.0
  C  C450  1  0.47642000  0.47749000  0.43187000  1.0
  C  C451  1  0.46400000  0.46126000  0.45819000  1.0
  C  C452  1  0.43565000  0.42908000  0.45898000  1.0
  C  C453  1  0.41841000  0.41393000  0.43356000  1.0
  C  C454  1  0.43056000  0.43031000  0.40703000  1.0
  C  C455  1  0.46050000  0.46156000  0.40632000  1.0
  C  C456  1  0.72042000  0.76279000  0.06734000  1.0
  C  C457  1  0.74274000  0.77726000  0.04388000  1.0
  C  C458  1  0.77320000  0.75290000  0.03139000  1.0
  C  C459  1  0.78154000  0.71396000  0.04216000  1.0
  C  C460  1  0.75894000  0.69910000  0.06580000  1.0
  C  C461  1  0.72819000  0.72392000  0.07837000  1.0
  C  C462  1  0.73554000  0.67206000  0.57020000  1.0
  C  C463  1  0.71095000  0.65797000  0.54768000  1.0
  C  C464  1  0.67725000  0.68114000  0.53832000  1.0
  C  C465  1  0.66719000  0.71788000  0.55186000  1.0
  C  C466  1  0.69169000  0.73211000  0.57476000  1.0
  C  C467  1  0.72632000  0.70908000  0.58367000  1.0
  C  C468  1  0.22110000  0.19751000  0.97294000  1.0
  C  C469  1  0.24674000  0.16700000  0.96202000  1.0
  C  C470  1  0.28045000  0.17741000  0.94483000  1.0
  C  C471  1  0.28918000  0.21830000  0.93881000  1.0
  C  C472  1  0.26347000  0.24930000  0.94991000  1.0
  C  C473  1  0.22910000  0.23855000  0.96700000  1.0
  C  C474  1  0.24336000  0.23942000  0.46408000  1.0
  C  C475  1  0.21976000  0.27112000  0.45265000  1.0
  C  C476  1  0.18687000  0.26237000  0.43430000  1.0
  C  C477  1  0.17712000  0.22200000  0.42738000  1.0
  C  C478  1  0.20085000  0.18981000  0.43892000  1.0
  C  C479  1  0.23426000  0.19887000  0.45736000  1.0
  C  C480  1  0.63018000  0.89992000  0.80315000  1.0
  C  C481  1  0.59376000  0.91257000  0.81704000  1.0
  C  C482  1  0.55732000  0.91918000  0.80122000  1.0
  C  C483  1  0.55760000  0.91333000  0.77142000  1.0
  C  C484  1  0.59367000  0.89912000  0.75759000  1.0
  C  C485  1  0.63009000  0.89289000  0.77360000  1.0
  C  C486  1  0.88284000  0.10447000  0.15937000  1.0
  C  C487  1  0.84762000  0.08442000  0.14877000  1.0
  C  C488  1  0.80870000  0.09126000  0.16136000  1.0
  C  C489  1  0.80492000  0.11788000  0.18465000  1.0
  C  C490  1  0.84009000  0.13817000  0.19541000  1.0
  C  C491  1  0.87902000  0.13164000  0.18247000  1.0
  C  C492  1  0.57450000  0.41690000  0.60520000  1.0
  C  C493  1  0.61385000  0.40275000  0.61348000  1.0
  C  C494  1  0.64876000  0.42788000  0.61031000  1.0
  C  C495  1  0.64435000  0.46710000  0.59858000  1.0
  C  C496  1  0.60492000  0.48142000  0.59021000  1.0
  C  C497  1  0.56997000  0.45616000  0.59384000  1.0
  C  C498  1  0.90084000  0.48268000  0.36485000  1.0
  C  C499  1  0.86824000  0.50694000  0.35456000  1.0
  C  C500  1  0.83041000  0.50810000  0.36929000  1.0
  C  C501  1  0.82606000  0.48758000  0.39544000  1.0
  C  C502  1  0.85844000  0.46292000  0.40577000  1.0
  C  C503  1  0.89494000  0.45878000  0.38949000  1.0
  C  C504  1  0.39700000  0.02613000  0.10982000  1.0
  C  C505  1  0.35749000  0.02003000  0.12175000  1.0
  C  C506  1  0.32237000  0.03683000  0.10855000  1.0
  C  C507  1  0.32672000  0.05949000  0.08323000  1.0
  C  C508  1  0.36631000  0.06559000  0.07112000  1.0
  C  C509  1  0.40147000  0.04905000  0.08474000  1.0
  C  C510  1  0.11801000  0.93996000  0.84523000  1.0
  C  C511  1  0.08546000  0.91176000  0.84275000  1.0
  C  C512  1  0.04438000  0.92377000  0.84851000  1.0
  C  C513  1  0.03587000  0.96436000  0.85608000  1.0
  C  C514  1  0.06835000  0.99297000  0.85819000  1.0
  C  C515  1  0.10954000  0.98031000  0.85339000  1.0
  C  C516  1  0.33975000  0.56673000  0.30883000  1.0
  C  C517  1  0.37655000  0.56996000  0.32464000  1.0
  C  C518  1  0.41242000  0.58588000  0.31178000  1.0
  C  C519  1  0.41116000  0.59855000  0.28304000  1.0
  C  C520  1  0.37498000  0.59274000  0.26662000  1.0
  C  C521  1  0.33905000  0.57730000  0.27983000  1.0
  C  C522  1  0.08819000  0.44348000  0.67213000  1.0
  C  C523  1  0.12361000  0.43401000  0.65596000  1.0
  C  C524  1  0.16222000  0.42926000  0.66955000  1.0
  C  C525  1  0.16550000  0.43386000  0.69925000  1.0
  C  C526  1  0.13020000  0.44338000  0.71564000  1.0
  C  C527  1  0.09161000  0.44843000  0.70191000  1.0
  C  C528  1  0.94419000  0.56860000  0.78812000  1.0
  C  C529  1  0.93473000  0.60981000  0.79206000  1.0
  C  C530  1  0.94316000  0.62850000  0.81823000  1.0
  C  C531  1  0.96083000  0.60611000  0.84066000  1.0
  C  C532  1  0.97061000  0.56460000  0.83678000  1.0
  C  C533  1  0.96215000  0.54594000  0.81029000  1.0
  C  C534  1  0.50983000  0.88150000  0.28342000  1.0
  C  C535  1  0.52739000  0.84327000  0.28860000  1.0
  C  C536  1  0.51884000  0.82302000  0.31413000  1.0
  C  C537  1  0.49250000  0.84066000  0.33453000  1.0
  C  C538  1  0.47499000  0.87939000  0.32950000  1.0
  C  C539  1  0.48391000  0.89978000  0.30372000  1.0
  C  C540  1  0.06566000  0.37848000  0.19326000  1.0
  C  C541  1  0.06047000  0.33623000  0.19211000  1.0
  C  C542  1  0.06231000  0.31624000  0.16588000  1.0
  C  C543  1  0.06788000  0.33836000  0.14053000  1.0
  C  C544  1  0.07202000  0.38110000  0.14149000  1.0
  C  C545  1  0.07158000  0.40103000  0.16816000  1.0
  C  C546  1  0.48486000  0.16094000  0.68554000  1.0
  C  C547  1  0.45873000  0.13531000  0.70112000  1.0
  C  C548  1  0.47560000  0.10354000  0.71727000  1.0
  C  C549  1  0.51863000  0.09661000  0.71718000  1.0
  C  C550  1  0.54479000  0.12091000  0.70005000  1.0
  C  C551  1  0.52766000  0.15368000  0.68459000  1.0
  S  S552  1  0.84034000  0.82804000  0.83328000  1.0
  S  S553  1  0.88513000  0.79413000  0.89928000  1.0
  S  S554  1  0.79271000  0.85458000  0.90087000  1.0
  S  S555  1  0.60384000  0.99977000  0.16764000  1.0
  S  S556  1  0.57388000  0.89971000  0.14363000  1.0
  S  S557  1  0.65869000  0.95137000  0.10992000  1.0
  S  S558  1  0.86398000  0.44617000  0.66726000  1.0
  S  S559  1  0.89539000  0.54684000  0.64404000  1.0
  S  S560  1  0.82118000  0.49113000  0.60387000  1.0
  S  S561  1  0.63012000  0.62375000  0.33664000  1.0
  S  S562  1  0.58000000  0.66520000  0.39923000  1.0
  S  S563  1  0.65903000  0.58950000  0.40708000  1.0
  S  S564  1  0.10866000  0.09616000  0.14791000  1.0
  S  S565  1  0.07340000  0.15611000  0.08807000  1.0
  S  S566  1  0.14492000  0.07535000  0.07665000  1.0
  S  S567  1  0.33942000  0.96473000  0.80722000  1.0
  S  S568  1  0.38545000  0.04670000  0.84730000  1.0
  S  S569  1  0.30301000  0.98940000  0.87806000  1.0
  S  S570  1  0.12447000  0.50148000  0.31677000  1.0
  S  S571  1  0.08762000  0.40608000  0.34241000  1.0
  S  S572  1  0.17431000  0.45522000  0.37734000  1.0
  S  S573  1  0.36850000  0.34274000  0.63949000  1.0
  S  S574  1  0.39800000  0.28761000  0.57619000  1.0
  S  S575  1  0.31134000  0.35507000  0.57375000  1.0
  I  I576  1  0.85497000  0.93288000  0.85942000  1.0
  I  I577  1  0.59107000  0.04139000  0.09339000  1.0
  I  I578  1  0.88828000  0.40119000  0.59452000  1.0
  I  I579  1  0.60404000  0.51532000  0.36044000  1.0
  I  I580  1  0.08110000  0.99640000  0.11185000  1.0
  I  I581  1  0.35583000  0.88960000  0.86827000  1.0
  I  I582  1  0.13072000  0.55910000  0.38725000  1.0
  I  I583  1  0.38152000  0.43962000  0.59696000  1.0
  I  I584  1  0.97081000  0.95585000  0.00134000  1.0
  I  I585  1  0.99352000  0.13404000  0.96865000  1.0
  I  I586  1  0.86506000  0.02734000  0.90548000  1.0
  I  I587  1  0.46994000  0.98244000  0.99962000  1.0
  I  I588  1  0.59385000  0.84236000  0.99767000  1.0
  I  I589  1  0.48138000  0.87676000  0.89306000  1.0
  I  I590  1  0.00314000  0.46260000  0.49738000  1.0
  I  I591  1  0.93029000  0.63184000  0.51570000  1.0
  I  I592  1  0.02278000  0.59106000  0.40413000  1.0
  I  I593  1  0.48718000  0.48598000  0.49699000  1.0
  I  I594  1  0.37374000  0.36586000  0.43607000  1.0
  I  I595  1  0.48455000  0.48360000  0.36677000  1.0
  I  I596  1  0.73035000  0.83664000  0.02709000  1.0
  I  I597  1  0.82899000  0.67886000  0.02205000  1.0
  I  I598  1  0.69226000  0.70398000  0.11399000  1.0
  I  I599  1  0.72467000  0.60108000  0.52762000  1.0
  I  I600  1  0.61425000  0.75074000  0.53701000  1.0
  I  I601  1  0.76643000  0.72959000  0.61700000  1.0
  I  I602  1  0.23439000  0.10441000  0.97151000  1.0
  I  I603  1  0.34185000  0.23168000  0.91282000  1.0
  I  I604  1  0.18796000  0.28321000  0.98415000  1.0
  I  I605  1  0.23385000  0.33307000  0.46320000  1.0
  I  I606  1  0.12597000  0.21127000  0.39946000  1.0
  I  I607  1  0.27233000  0.15235000  0.47540000  1.0
  I  I608  1  0.59394000  0.92140000  0.86195000  1.0
  I  I609  1  0.50392000  0.92979000  0.74700000  1.0
  I  I610  1  0.68647000  0.87350000  0.75356000  1.0
  I  I611  1  0.85324000  0.04362000  0.11385000  1.0
  I  I612  1  0.74489000  0.12659000  0.20329000  1.0
  I  I613  1  0.93275000  0.16425000  0.19669000  1.0
  I  I614  1  0.62054000  0.34353000  0.63100000  1.0
  I  I615  1  0.69845000  0.50437000  0.59363000  1.0
  I  I616  1  0.50907000  0.47652000  0.58256000  1.0
  I  I617  1  0.87506000  0.53988000  0.31585000  1.0
  I  I618  1  0.76947000  0.49449000  0.41900000  1.0
  I  I619  1  0.93950000  0.41314000  0.40057000  1.0
  I  I620  1  0.35086000  0.98590000  0.15995000  1.0
  I  I621  1  0.27230000  0.08453000  0.06365000  1.0
  I  I622  1  0.46255000  0.05827000  0.06803000  1.0
  I  I623  1  0.09851000  0.85122000  0.82958000  1.0
  I  I624  1  0.97345000  0.98141000  0.86597000  1.0
  I  I625  1  0.16043000  0.02125000  0.86014000  1.0
  I  I626  1  0.37753000  0.55024000  0.36789000  1.0
  I  I627  1  0.46282000  0.63106000  0.26545000  1.0
  I  I628  1  0.28236000  0.56995000  0.25655000  1.0
  I  I629  1  0.11873000  0.42655000  0.61112000  1.0
  I  I630  1  0.22504000  0.42607000  0.71886000  1.0
  I  I631  1  0.03771000  0.46513000  0.72588000  1.0
  I  I632  1  0.90703000  0.64401000  0.75843000  1.0
  I  I633  1  0.97091000  0.63597000  0.88065000  1.0
  I  I634  1  0.97697000  0.48345000  0.80261000  1.0
  I  I635  1  0.56692000  0.81579000  0.25765000  1.0
  I  I636  1  0.47899000  0.80704000  0.37252000  1.0
  I  I637  1  0.45920000  0.95872000  0.29456000  1.0
  I  I638  1  0.04934000  0.30222000  0.23010000  1.0
  I  I639  1  0.07084000  0.30571000  0.10105000  1.0
  I  I640  1  0.08207000  0.46512000  0.17160000  1.0
  I  I641  1  0.39333000  0.14476000  0.70010000  1.0
  I  I642  1  0.54383000  0.05170000  0.74541000  1.0
  I  I643  1  0.56550000  0.19352000  0.65957000  1.0
  N  N644  1  0.82729000  0.80576000  0.95878000  1.0
  N  N645  1  0.87373000  0.88603000  0.93286000  1.0
  N  N646  1  0.74820000  0.88144000  0.84031000  1.0
  N  N647  1  0.91107000  0.74978000  0.83749000  1.0
  N  N648  1  0.94186000  0.84255000  0.85183000  1.0
  N  N649  1  0.64089000  0.85319000  0.09822000  1.0
  N  N650  1  0.57699000  0.92050000  0.07366000  1.0
  N  N651  1  0.69525000  0.03559000  0.13863000  1.0
  N  N652  1  0.53760000  0.93686000  0.20467000  1.0
  N  N653  1  0.50760000  0.97782000  0.14518000  1.0
  N  N654  1  0.82842000  0.59003000  0.59575000  1.0
  N  N655  1  0.90260000  0.53050000  0.57371000  1.0
  N  N656  1  0.77530000  0.41229000  0.62821000  1.0
  N  N657  1  0.92245000  0.51421000  0.70785000  1.0
  N  N658  1  0.96452000  0.47146000  0.65324000  1.0
  N  N659  1  0.62134000  0.63954000  0.46264000  1.0
  N  N660  1  0.56364000  0.57334000  0.42712000  1.0
  N  N661  1  0.71510000  0.56066000  0.35232000  1.0
  N  N662  1  0.56416000  0.70689000  0.33565000  1.0
  N  N663  1  0.52596000  0.61908000  0.34970000  1.0
  N  N664  1  0.13311000  0.14916000  0.02913000  1.0
  N  N665  1  0.06008000  0.08194000  0.03974000  1.0
  N  N666  1  0.19560000  0.03546000  0.12898000  1.0
  N  N667  1  0.05820000  0.18992000  0.15259000  1.0
  N  N668  1  0.00614000  0.11114000  0.13118000  1.0
  N  N669  1  0.33727000  0.07685000  0.90583000  1.0
  N  N670  1  0.39678000  0.99447000  0.90595000  1.0
  N  N671  1  0.24749000  0.92696000  0.83940000  1.0
  N  N672  1  0.40857000  0.03664000  0.77857000  1.0
  N  N673  1  0.44308000  0.97207000  0.82331000  1.0
  N  N674  1  0.13476000  0.36780000  0.39887000  1.0
  N  N675  1  0.08306000  0.45488000  0.40638000  1.0
  N  N676  1  0.22341000  0.52870000  0.34022000  1.0
  N  N677  1  0.07088000  0.43454000  0.27403000  1.0
  N  N678  1  0.01984000  0.47105000  0.32755000  1.0
  N  N679  1  0.32789000  0.28725000  0.52258000  1.0
  N  N680  1  0.38974000  0.36445000  0.52957000  1.0
  N  N681  1  0.27705000  0.39863000  0.63155000  1.0
  N  N682  1  0.43722000  0.26149000  0.64024000  1.0
  N  N683  1  0.46431000  0.34700000  0.61165000  1.0
  N  N684  1  0.92121000  0.10524000  0.92415000  1.0
  N  N685  1  0.55259000  0.83604000  0.93400000  1.0
  N  N686  1  0.97517000  0.64200000  0.45372000  1.0
  N  N687  1  0.41364000  0.41620000  0.38246000  1.0
  N  N688  1  0.76669000  0.66146000  0.07631000  1.0
  N  N689  1  0.68216000  0.76758000  0.58797000  1.0
  N  N690  1  0.27161000  0.28891000  0.94415000  1.0
  N  N691  1  0.19169000  0.15068000  0.43235000  1.0
  N  N692  1  0.59340000  0.89173000  0.72912000  1.0
  N  N693  1  0.83648000  0.16377000  0.21798000  1.0
  N  N694  1  0.60065000  0.51906000  0.57871000  1.0
  N  N695  1  0.85453000  0.44332000  0.43109000  1.0
  N  N696  1  0.37053000  0.08709000  0.04659000  1.0
  N  N697  1  0.06011000  0.03227000  0.86497000  1.0
  N  N698  1  0.37469000  0.60208000  0.23845000  1.0
  N  N699  1  0.13336000  0.44766000  0.74434000  1.0
  N  N700  1  0.98793000  0.54289000  0.85829000  1.0
  N  N701  1  0.44984000  0.89677000  0.34920000  1.0
  N  N702  1  0.07670000  0.40275000  0.11708000  1.0
  N  N703  1  0.58599000  0.11306000  0.69866000  1.0
