# generated using pymatgen
data_Tm2H42(C19O4)3
_symmetry_space_group_name_H-M   'P 1'
_cell_length_a   15.77715000
_cell_length_b   18.50575000
_cell_length_c   20.23570000
_cell_angle_alpha   64.44000000
_cell_angle_beta   75.66500000
_cell_angle_gamma   89.88400000
_symmetry_Int_Tables_number   1
_chemical_formula_structural   Tm2H42(C19O4)3
_chemical_formula_sum   'Tm2 H42 C57 O12'
_cell_volume   5126.76184635
_cell_formula_units_Z   1
loop_
 _symmetry_equiv_pos_site_id
 _symmetry_equiv_pos_as_xyz
  1  'x, y, z'
loop_
 _atom_site_type_symbol
 _atom_site_label
 _atom_site_symmetry_multiplicity
 _atom_site_fract_x
 _atom_site_fract_y
 _atom_site_fract_z
 _atom_site_occupancy
  C  C0  1  0.93402000  0.88248000  0.90932000  1.0
  C  C1  1  0.98278000  0.08636000  0.00838000  1.0
  C  C2  1  0.03514000  0.89998000  0.13710000  1.0
  C  C3  1  0.85770000  0.89554000  0.31194000  1.0
  C  C4  1  0.02060000  0.67668000  0.05696000  1.0
  C  C5  1  0.77474000  0.85324000  0.10890000  1.0
  C  C6  1  0.68484000  0.86456000  0.14052000  1.0
  C  C7  1  0.61824000  0.79894000  0.17532000  1.0
  C  C8  1  0.53104000  0.81340000  0.19286000  1.0
  C  C9  1  0.50974000  0.89030000  0.17584000  1.0
  C  C10  1  0.57462000  0.95576000  0.14538000  1.0
  C  C11  1  0.66305000  0.94254000  0.12812000  1.0
  C  C12  1  0.45192000  0.75500000  0.21896000  1.0
  C  C13  1  0.38412000  0.81134000  0.18822000  1.0
  C  C14  1  0.41424000  0.89330000  0.18486000  1.0
  C  C15  1  0.28788000  0.78020000  0.23690000  1.0
  C  C16  1  0.23862000  0.81248000  0.17870000  1.0
  C  C17  1  0.29212000  0.83464000  0.10648000  1.0
  C  C18  1  0.38438000  0.82236000  0.10724000  1.0
  C  C19  1  0.12036000  0.87096000  0.12638000  1.0
  C  C20  1  0.15272000  0.83156000  0.19004000  1.0
  C  C21  1  0.17316000  0.88898000  0.05280000  1.0
  C  C22  1  0.26040000  0.87122000  0.04252000  1.0
  C  C23  1  0.06222000  0.64010000  0.00690000  1.0
  C  C24  1  0.06824000  0.55646000  0.03642000  1.0
  C  C25  1  0.09572000  0.52285500  0.98556000  1.0
  C  C26  1  0.11394000  0.56946000  0.90840000  1.0
  C  C27  1  0.11124000  0.65256000  0.87768000  1.0
  C  C28  1  0.08598000  0.68800000  0.92712000  1.0
  C  C29  1  0.11048000  0.43774000  0.00444000  1.0
  C  C30  1  0.11942000  0.43258000  0.92780000  1.0
  C  C31  1  0.13724000  0.52178000  0.86512000  1.0
  C  C32  1  0.03332000  0.38682000  0.93224000  1.0
  C  C33  1  0.05824000  0.30594000  0.94284000  1.0
  C  C34  1  0.14772000  0.30500000  0.92866000  1.0
  C  C35  1  0.19470000  0.38296000  0.91106000  1.0
  C  C36  1  0.03866000  0.16462000  0.97184000  1.0
  C  C37  1  0.00178000  0.23600000  0.96610000  1.0
  C  C38  1  0.13134000  0.16620000  0.95192000  1.0
  C  C39  1  0.18608000  0.23636000  0.93092000  1.0
  C  C40  1  0.94212000  0.90400000  0.82844000  1.0
  C  C41  1  0.87668000  0.87274000  0.80788000  1.0
  C  C42  1  0.89060000  0.88700000  0.73184000  1.0
  C  C43  1  0.96750000  0.92852000  0.67802000  1.0
  C  C44  1  0.03244000  0.96174000  0.69640000  1.0
  C  C45  1  0.01924000  0.94996000  0.77176000  1.0
  C  C46  1  0.82784000  0.86378000  0.69836000  1.0
  C  C47  1  0.88368000  0.88184000  0.61616000  1.0
  C  C48  1  0.96970000  0.93496000  0.60186000  1.0
  C  C49  1  0.83470000  0.92626000  0.55396000  1.0
  C  C50  1  0.85562000  0.88662000  0.50268000  1.0
  C  C51  1  0.89220000  0.81686000  0.53438000  1.0
  C  C52  1  0.90494000  0.80216000  0.60934000  1.0
  C  C53  1  0.86212000  0.86500000  0.39150000  1.0
  C  C54  1  0.84172000  0.91312000  0.43042000  1.0
  C  C55  1  0.89494000  0.79094000  0.42662000  1.0
  C  C56  1  0.91088000  0.76704000  0.49804000  1.0
  H  H57  1  0.63328000  0.73878000  0.18444000  1.0
  H  H58  1  0.55712000  0.01610000  0.13166000  1.0
  H  H59  1  0.71376000  0.99358000  0.10102000  1.0
  H  H60  1  0.43188000  0.72382000  0.28226000  1.0
  H  H61  1  0.46410000  0.70968000  0.19638000  1.0
  H  H62  1  0.40058000  0.94636000  0.13672000  1.0
  H  H63  1  0.38442000  0.89692000  0.23904000  1.0
  H  H64  1  0.27662000  0.71320000  0.26356000  1.0
  H  H65  1  0.26606000  0.80038000  0.28216000  1.0
  H  H66  1  0.39870000  0.76708000  0.09980000  1.0
  H  H67  1  0.43106000  0.87458000  0.06068000  1.0
  H  H68  1  0.11316000  0.81874000  0.24676000  1.0
  H  H69  1  0.14840000  0.91994000  0.00358000  1.0
  H  H70  1  0.30316000  0.88860000  0.98592000  1.0
  H  H71  1  0.05082000  0.51836000  0.09726000  1.0
  H  H72  1  0.12694000  0.68902000  0.81668000  1.0
  H  H73  1  0.08090000  0.75214000  0.90302000  1.0
  H  H74  1  0.05554000  0.39544000  0.05228000  1.0
  H  H75  1  0.17222000  0.42714000  0.02244000  1.0
  H  H76  1  0.20804000  0.53976000  0.83306000  1.0
  H  H77  1  0.09728000  0.53468000  0.82404000  1.0
  H  H78  1  0.97512000  0.38212000  0.97864000  1.0
  H  H79  1  0.01400000  0.41476000  0.87816000  1.0
  H  H80  1  0.24148000  0.37348000  0.94620000  1.0
  H  H81  1  0.23238000  0.41098000  0.84994000  1.0
  H  H82  1  0.93110000  0.23672000  0.98084000  1.0
  H  H83  1  0.16132000  0.11216000  0.95654000  1.0
  H  H84  1  0.25686000  0.23660000  0.91838000  1.0
  H  H85  1  0.81644000  0.83800000  0.85002000  1.0
  H  H86  1  0.09240000  0.99562000  0.65332000  1.0
  H  H87  1  0.07046000  0.97406000  0.78632000  1.0
  H  H88  1  0.77346000  0.90226000  0.69688000  1.0
  H  H89  1  0.79956000  0.79966000  0.73420000  1.0
  H  H90  1  0.03090000  0.91406000  0.57857000  1.0
  H  H91  1  0.97018000  0.99960000  0.56310000  1.0
  H  H92  1  0.76206000  0.91596000  0.57890000  1.0
  H  H93  1  0.85388000  0.99248000  0.52158000  1.0
  H  H94  1  0.85798000  0.74908000  0.65378000  1.0
  H  H95  1  0.97292000  0.78802000  0.61164000  1.0
  H  H96  1  0.81580000  0.96994000  0.40510000  1.0
  H  H97  1  0.91158000  0.75346000  0.39754000  1.0
  H  H98  1  0.93816000  0.71124000  0.52406000  1.0
  O  O99  1  0.91474000  0.07264000  0.06682000  1.0
  O  O100  1  0.01391500  0.02550000  0.99730500  1.0
  O  O101  1  0.01632000  0.95754000  0.15506000  1.0
  O  O102  1  0.88404000  0.97122000  0.26146000  1.0
  O  O103  1  0.83656000  0.85026000  0.28110000  1.0
  O  O104  1  0.96310000  0.86878000  0.13824000  1.0
  O  O105  1  0.04222000  0.75394000  0.03416000  1.0
  O  O106  1  0.84376000  0.90472000  0.08550000  1.0
  O  O107  1  0.79750000  0.78756000  0.10490000  1.0
  O  O108  1  0.90002000  0.81226000  0.96482000  1.0
  O  O109  1  0.97082000  0.92472000  0.93462000  1.0
  O  O110  1  0.94578000  0.64060000  0.10882000  1.0
  Tm  Tm111  1  0.86918000  0.95178000  0.16514000  1.0
  Tm  Tm112  1  0.94076000  0.82916000  0.05564000  1.0
