# generated using pymatgen
data_Ge2H24C24S3O2
_symmetry_space_group_name_H-M   'P 1'
_cell_length_a   30.39580000
_cell_length_b   30.52436818
_cell_length_c   34.01670000
_cell_angle_alpha   86.36360032
_cell_angle_beta   88.16600000
_cell_angle_gamma   60.44514168
_symmetry_Int_Tables_number   1
_chemical_formula_structural   Ge2H24C24S3O2
_chemical_formula_sum   'Ge12 H144 C144 S18 O12'
_cell_volume   27399.22459332
_cell_formula_units_Z   6
loop_
 _symmetry_equiv_pos_site_id
 _symmetry_equiv_pos_as_xyz
  1  'x, y, z'
loop_
 _atom_site_type_symbol
 _atom_site_label
 _atom_site_symmetry_multiplicity
 _atom_site_fract_x
 _atom_site_fract_y
 _atom_site_fract_z
 _atom_site_occupancy
  Ge  Ge0  1  0.40938000  0.51044000  0.25910000  1.0
  Ge  Ge1  1  0.47607000  0.40963000  0.19575000  1.0
  Ge  Ge2  1  0.52619000  0.48928000  0.21584000  1.0
  Ge  Ge3  1  0.41607000  0.53683000  0.15638000  1.0
  Ge  Ge4  1  0.51904000  0.95750000  0.59813000  1.0
  Ge  Ge5  1  0.48793000  0.87553000  0.55056000  1.0
  Ge  Ge6  1  0.41961000  0.00781000  0.52716000  1.0
  Ge  Ge7  1  0.54843000  0.93545000  0.49708000  1.0
  Ge  Ge8  1  0.98115000  0.40510000  0.81654000  1.0
  Ge  Ge9  1  0.08251000  0.41138000  0.86081000  1.0
  Ge  Ge10  1  0.95508000  0.50204000  0.88141000  1.0
  Ge  Ge11  1  0.00552000  0.37486000  0.91919000  1.0
  H  H12  1  0.22648000  0.68503000  0.00450000  1.0
  H  H13  1  0.40876000  0.51745000  0.37823000  1.0
  H  H14  1  0.32574000  0.55392000  0.29571000  1.0
  H  H15  1  0.37218000  0.50046000  0.32444000  1.0
  H  H16  1  0.46100000  0.34523000  0.16469000  1.0
  H  H17  1  0.52687000  0.32611000  0.16409000  1.0
  H  H18  1  0.36263000  0.51122000  0.00024000  1.0
  H  H19  1  0.29552000  0.57419000  0.13219000  1.0
  H  H20  1  0.20975000  0.66253000  0.04921000  1.0
  H  H21  1  0.16528000  0.68996000  0.00786000  1.0
  H  H22  1  0.59431000  0.22389000  0.28041000  1.0
  H  H23  1  0.57858000  0.28770000  0.22675000  1.0
  H  H24  1  0.69004000  0.12295000  0.22139000  1.0
  H  H25  1  0.34216000  0.43214000  0.01860000  1.0
  H  H26  1  0.25334000  0.54040000  0.09333000  1.0
  H  H27  1  0.16158000  0.61313000  0.99893000  1.0
  H  H28  1  0.19214000  0.59555000  0.04614000  1.0
  H  H29  1  0.62841000  0.15852000  0.19982000  1.0
  H  H30  1  0.43670000  0.31127000  0.95485000  1.0
  H  H31  1  0.42360000  0.32056000  0.22015000  1.0
  H  H32  1  0.65929000  0.08960000  0.20633000  1.0
  H  H33  1  0.19419000  0.51445000  0.89505000  1.0
  H  H34  1  0.16849000  0.54502000  0.96791000  1.0
  H  H35  1  0.48161000  0.23748000  0.35305000  1.0
  H  H36  1  0.55953000  0.15783000  0.23360000  1.0
  H  H37  1  0.40581000  0.54315000  0.03959000  1.0
  H  H38  1  0.57493000  0.53316000  0.23217000  1.0
  H  H39  1  0.60559000  0.46945000  0.25241000  1.0
  H  H40  1  0.35039000  0.61964000  0.12345000  1.0
  H  H41  1  0.40598000  0.58976000  0.09348000  1.0
  H  H42  1  0.55448000  0.99769000  0.64094000  1.0
  H  H43  1  0.50651000  0.98940000  0.66666667  1.0
  H  H44  1  0.52394000  0.78275000  0.56978000  1.0
  H  H45  1  0.45989000  0.81837000  0.58601000  1.0
  H  H46  1  0.36339000  0.09310000  0.49285000  1.0
  H  H47  1  0.33735000  0.05226000  0.48908000  1.0
  H  H48  1  0.63553000  0.91190000  0.46989000  1.0
  H  H49  1  0.60107000  0.89669000  0.43672000  1.0
  H  H50  1  0.93627000  0.36876000  0.77943000  1.0
  H  H51  1  0.93567000  0.42123000  0.75187000  1.0
  H  H52  1  0.17687000  0.35722000  0.85082000  1.0
  H  H53  1  0.15267000  0.41552000  0.82192000  1.0
  H  H54  1  0.88964000  0.57130000  0.92212000  1.0
  H  H55  1  0.93528000  0.58776000  0.90302000  1.0
  H  H56  1  0.01482000  0.29346000  0.95131000  1.0
  H  H57  1  0.03681000  0.32298000  0.98337000  1.0
  H  H58  1  0.18216000  0.35973000  0.92681000  1.0
  H  H59  1  0.21576000  0.39080000  0.97612000  1.0
  H  H60  1  0.15858000  0.48465000  0.84649000  1.0
  H  H61  1  0.30899000  0.35998000  0.98904000  1.0
  H  H62  1  0.30315000  0.38230000  0.93751000  1.0
  H  H63  1  0.38603000  0.31380000  0.92752000  1.0
  H  H64  1  0.39354000  0.29537000  0.98027000  1.0
  H  H65  1  0.42841000  0.57341000  0.41305000  1.0
  H  H66  1  0.36967000  0.68400000  0.31534000  1.0
  H  H67  1  0.34759000  0.62894000  0.28132000  1.0
  H  H68  1  0.50879000  0.66349000  0.44100000  1.0
  H  H69  1  0.33980000  0.72894000  0.38121000  1.0
  H  H70  1  0.51529000  0.74213000  0.43834000  1.0
  H  H71  1  0.53808000  0.77634000  0.49227000  1.0
  H  H72  1  0.39759000  0.81091000  0.55101000  1.0
  H  H73  1  0.37672000  0.77280000  0.49883000  1.0
  H  H74  1  0.31786000  0.80083000  0.44188000  1.0
  H  H75  1  0.36079000  0.82483000  0.42819000  1.0
  H  H76  1  0.26088000  0.88490000  0.35716000  1.0
  H  H77  1  0.29166000  0.89603000  0.39622000  1.0
  H  H78  1  0.25002000  0.86918000  0.40678000  1.0
  H  H79  1  0.51255000  0.57050000  0.41879000  1.0
  H  H80  1  0.50070000  0.58334000  0.36604000  1.0
  H  H81  1  0.62868000  0.55588000  0.37670000  1.0
  H  H82  1  0.58899000  0.53640000  0.35442000  1.0
  H  H83  1  0.60125000  0.52593000  0.40755000  1.0
  H  H84  1  0.26689000  0.06656000  0.53084000  1.0
  H  H85  1  0.20561000  0.11614000  0.58075000  1.0
  H  H86  1  0.30500000  0.17044000  0.61526000  1.0
  H  H87  1  0.36363000  0.12491000  0.56268000  1.0
  H  H88  1  0.12572000  0.18254000  0.69928000  1.0
  H  H89  1  0.21901000  0.24364000  0.61089000  1.0
  H  H90  1  0.11222000  0.23558000  0.75712000  1.0
  H  H91  1  0.03817000  0.29313000  0.79471000  1.0
  H  H92  1  0.98033000  0.39499000  0.69178000  1.0
  H  H93  1  0.05227000  0.33563000  0.65342000  1.0
  H  H94  1  0.12933000  0.33866000  0.63121000  1.0
  H  H95  1  0.13520000  0.33388000  0.68467000  1.0
  H  H96  1  0.22989000  0.36420000  0.64988000  1.0
  H  H97  1  0.17306000  0.38596000  0.67835000  1.0
  H  H98  1  0.17128000  0.38686000  0.62449000  1.0
  H  H99  1  0.17664000  0.09963000  0.64581000  1.0
  H  H100  1  0.24259000  0.08173000  0.65354000  1.0
  H  H101  1  0.20851000  0.03247000  0.74034000  1.0
  H  H102  1  0.24913000  0.01549000  0.69811000  1.0
  H  H103  1  0.18152000  0.03696000  0.69322000  1.0
  H  H104  1  0.98261000  0.37081000  0.03511000  1.0
  H  H105  1  0.90189000  0.40451000  0.07028000  1.0
  H  H106  1  0.83509000  0.37562000  0.97205000  1.0
  H  H107  1  0.91664000  0.34013000  0.93737000  1.0
  H  H108  1  0.73356000  0.50666000  0.10355000  1.0
  H  H109  1  0.81117000  0.34397000  0.03892000  1.0
  H  H110  1  0.64078000  0.52626000  0.10290000  1.0
  H  H111  1  0.58079000  0.54989000  0.15799000  1.0
  H  H112  1  0.67202000  0.40293000  0.21563000  1.0
  H  H113  1  0.73334000  0.38015000  0.16163000  1.0
  H  H114  1  0.75288000  0.32728000  0.10255000  1.0
  H  H115  1  0.68925000  0.37869000  0.09180000  1.0
  H  H116  1  0.71224000  0.28937000  0.01949000  1.0
  H  H117  1  0.67293000  0.32082000  0.06028000  1.0
  H  H118  1  0.73839000  0.27037000  0.06807000  1.0
  H  H119  1  0.83150000  0.49521000  0.07870000  1.0
  H  H120  1  0.82983000  0.49001000  0.02582000  1.0
  H  H121  1  0.74768000  0.62121000  0.04011000  1.0
  H  H122  1  0.80436000  0.57698000  0.01622000  1.0
  H  H123  1  0.80285000  0.58301000  0.06958000  1.0
  H  H124  1  0.54328000  0.95981000  0.38776000  1.0
  H  H125  1  0.52143000  0.03733000  0.34739000  1.0
  H  H126  1  0.59682000  0.07890000  0.43063000  1.0
  H  H127  1  0.61801000  0.00165000  0.47140000  1.0
  H  H128  1  0.59496000  0.06212000  0.31462000  1.0
  H  H129  1  0.43963000  0.25613000  0.27323000  1.0
  H  H130  1  0.59231000  0.09184000  0.24789000  1.0
  H  H131  1  0.45121000  0.20620000  0.40754000  1.0
  H  H132  1  0.47651000  0.13977000  0.41837000  1.0
  H  H133  1  0.52197000  0.17801000  0.49784000  1.0
  H  H134  1  0.49527000  0.13998000  0.48519000  1.0
  H  H135  1  0.45934000  0.20887000  0.47783000  1.0
  H  H136  1  0.81302000  0.59462000  0.88532000  1.0
  H  H137  1  0.75177000  0.65554000  0.83691000  1.0
  H  H138  1  0.86860000  0.68021000  0.78279000  1.0
  H  H139  1  0.93002000  0.61922000  0.83133000  1.0
  H  H140  1  0.66426000  0.83238000  0.78494000  1.0
  H  H141  1  0.79645000  0.67440000  0.72870000  1.0
  H  H142  1  0.70818000  0.85021000  0.67410000  1.0
  H  H143  1  0.64300000  0.92554000  0.63795000  1.0
  H  H144  1  0.52683000  0.90800000  0.70122000  1.0
  H  H145  1  0.59197000  0.83202000  0.73668000  1.0
  H  H146  1  0.74847000  0.69768000  0.66856000  1.0
  H  H147  1  0.69330000  0.75844000  0.66061000  1.0
  H  H148  1  0.78628000  0.76610000  0.59768000  1.0
  H  H149  1  0.72167000  0.78042000  0.60102000  1.0
  H  H150  1  0.77329000  0.71487000  0.60376000  1.0
  H  H151  1  0.70131000  0.75730000  0.85505000  1.0
  H  H152  1  0.76636000  0.74463000  0.85483000  1.0
  H  H153  1  0.69485000  0.86815000  0.89147000  1.0
  H  H154  1  0.74289000  0.80468000  0.90378000  1.0
  H  H155  1  0.67637000  0.82107000  0.90063000  1.0
  C  C156  1  0.36585000  0.53394000  0.30533000  1.0
  C  C157  1  0.37234000  0.54307000  0.05145000  1.0
  C  C158  1  0.35332000  0.56190000  0.08850000  1.0
  C  C159  1  0.49236000  0.34203000  0.18277000  1.0
  C  C160  1  0.30418000  0.52448000  0.04353000  1.0
  C  C161  1  0.34788000  0.52467000  0.02910000  1.0
  C  C162  1  0.31034000  0.56052000  0.10341000  1.0
  C  C163  1  0.28618000  0.54155000  0.08120000  1.0
  C  C164  1  0.20562000  0.66592000  0.01661000  1.0
  C  C165  1  0.55687000  0.24514000  0.26758000  1.0
  C  C166  1  0.54788000  0.28154000  0.23712000  1.0
  C  C167  1  0.50027000  0.30797000  0.21891000  1.0
  C  C168  1  0.27774000  0.50651000  0.01873000  1.0
  C  C169  1  0.19910000  0.59392000  0.01381000  1.0
  C  C170  1  0.65278000  0.12487000  0.21933000  1.0
  C  C171  1  0.30432000  0.45669000  0.00717000  1.0
  C  C172  1  0.22833000  0.53907000  0.00411000  1.0
  C  C173  1  0.51837000  0.23468000  0.28010000  1.0
  C  C174  1  0.46084000  0.30000000  0.23341000  1.0
  C  C175  1  0.46987000  0.26349000  0.26375000  1.0
  C  C176  1  0.28360000  0.43863000  0.98035000  1.0
  C  C177  1  0.20656000  0.52039000  0.97886000  1.0
  C  C178  1  0.39650000  0.32069000  0.95662000  1.0
  C  C179  1  0.52961000  0.19085000  0.30757000  1.0
  C  C180  1  0.58564000  0.12942000  0.25606000  1.0
  C  C181  1  0.58666000  0.49368000  0.22567000  1.0
  C  C182  1  0.37897000  0.58296000  0.11204000  1.0
  C  C183  1  0.54018000  0.97080000  0.64733000  1.0
  C  C184  1  0.48561000  0.81301000  0.56060000  1.0
  C  C185  1  0.35524000  0.06557000  0.50975000  1.0
  C  C186  1  0.59800000  0.92614000  0.45597000  1.0
  C  C187  1  0.95977000  0.38609000  0.76992000  1.0
  C  C188  1  0.15132000  0.39859000  0.85151000  1.0
  C  C189  1  0.91124000  0.57158000  0.89522000  1.0
  C  C190  1  0.00594000  0.33014000  0.96289000  1.0
  C  C191  1  0.16843000  0.41955000  0.88281000  1.0
  C  C192  1  0.18399000  0.39392000  0.91986000  1.0
  C  C193  1  0.20350000  0.41140000  0.94785000  1.0
  C  C194  1  0.20861000  0.45424000  0.93888000  1.0
  C  C195  1  0.19104000  0.48104000  0.90245000  1.0
  C  C196  1  0.17090000  0.46396000  0.87472000  1.0
  C  C197  1  0.23333000  0.47067000  0.96691000  1.0
  C  C198  1  0.31531000  0.38519000  0.96728000  1.0
  C  C199  1  0.37688000  0.56890000  0.32708000  1.0
  C  C200  1  0.39981000  0.55383000  0.36434000  1.0
  C  C201  1  0.41143000  0.58559000  0.38405000  1.0
  C  C202  1  0.40163000  0.63243000  0.36641000  1.0
  C  C203  1  0.37797000  0.64787000  0.32939000  1.0
  C  C204  1  0.36548000  0.61646000  0.30997000  1.0
  C  C205  1  0.41510000  0.66558000  0.38716000  1.0
  C  C206  1  0.46436000  0.64818000  0.40193000  1.0
  C  C207  1  0.47229000  0.67857000  0.42684000  1.0
  C  C208  1  0.43381000  0.72753000  0.43448000  1.0
  C  C209  1  0.38650000  0.74731000  0.41532000  1.0
  C  C210  1  0.37722000  0.71525000  0.39329000  1.0
  C  C211  1  0.44388000  0.75541000  0.46408000  1.0
  C  C212  1  0.48902000  0.75762000  0.46257000  1.0
  C  C213  1  0.50177000  0.77780000  0.49313000  1.0
  C  C214  1  0.46910000  0.79727000  0.52536000  1.0
  C  C215  1  0.42312000  0.79679000  0.52621000  1.0
  C  C216  1  0.41099000  0.77537000  0.49619000  1.0
  C  C217  1  0.34475000  0.80124000  0.41902000  1.0
  C  C218  1  0.27902000  0.86993000  0.38639000  1.0
  C  C219  1  0.50841000  0.59690000  0.39321000  1.0
  C  C220  1  0.59434000  0.55218000  0.38132000  1.0
  C  C221  1  0.32037000  0.09124000  0.54346000  1.0
  C  C222  1  0.27572000  0.08875000  0.54941000  1.0
  C  C223  1  0.24094000  0.11672000  0.57821000  1.0
  C  C224  1  0.25103000  0.14622000  0.60264000  1.0
  C  C225  1  0.29632000  0.14775000  0.59712000  1.0
  C  C226  1  0.33016000  0.12124000  0.56742000  1.0
  C  C227  1  0.21269000  0.17877000  0.63157000  1.0
  C  C228  1  0.18807000  0.16074000  0.65871000  1.0
  C  C229  1  0.14725000  0.19555000  0.68088000  1.0
  C  C230  1  0.13364000  0.24677000  0.67969000  1.0
  C  C231  1  0.16270000  0.26338000  0.65642000  1.0
  C  C232  1  0.19988000  0.22975000  0.63121000  1.0
  C  C233  1  0.08871000  0.28186000  0.70264000  1.0
  C  C234  1  0.08348000  0.27015000  0.74253000  1.0
  C  C235  1  0.04136000  0.30321000  0.76408000  1.0
  C  C236  1  0.00443000  0.34934000  0.74649000  1.0
  C  C237  1  0.00890000  0.36032000  0.70634000  1.0
  C  C238  1  0.05022000  0.32658000  0.68450000  1.0
  C  C239  1  0.15407000  0.31667000  0.65675000  1.0
  C  C240  1  0.19266000  0.36575000  0.65159000  1.0
  C  C241  1  0.20308000  0.10547000  0.66386000  1.0
  C  C242  1  0.21038000  0.04201000  0.70855000  1.0
  C  C243  1  0.95569000  0.35272000  0.98371000  1.0
  C  C244  1  0.95062000  0.37179000  0.02106000  1.0
  C  C245  1  0.90446000  0.39138000  0.04098000  1.0
  C  C246  1  0.86221000  0.39332000  0.02353000  1.0
  C  C247  1  0.86712000  0.37473000  0.98597000  1.0
  C  C248  1  0.91352000  0.35459000  0.96620000  1.0
  C  C249  1  0.81386000  0.41226000  0.04560000  1.0
  C  C250  1  0.78968000  0.46016000  0.06199000  1.0
  C  C251  1  0.74944000  0.47180000  0.08843000  1.0
  C  C252  1  0.73028000  0.43869000  0.09650000  1.0
  C  C253  1  0.75035000  0.39369000  0.07609000  1.0
  C  C254  1  0.79314000  0.38027000  0.05208000  1.0
  C  C255  1  0.69133000  0.45120000  0.12784000  1.0
  C  C256  1  0.64776000  0.49900000  0.12728000  1.0
  C  C257  1  0.61345000  0.51240000  0.15860000  1.0
  C  C258  1  0.62196000  0.47817000  0.19090000  1.0
  C  C259  1  0.66473000  0.42993000  0.19101000  1.0
  C  C260  1  0.69947000  0.41681000  0.16001000  1.0
  C  C261  1  0.72884000  0.35825000  0.08076000  1.0
  C  C262  1  0.71231000  0.30342000  0.04876000  1.0
  C  C263  1  0.80735000  0.49834000  0.05354000  1.0
  C  C264  1  0.78146000  0.58317000  0.04359000  1.0
  C  C265  1  0.58300000  0.97464000  0.43219000  1.0
  C  C266  1  0.55489000  0.98572000  0.39743000  1.0
  C  C267  1  0.54234000  0.02989000  0.37452000  1.0
  C  C268  1  0.55722000  0.06392000  0.38621000  1.0
  C  C269  1  0.58430000  0.05350000  0.42144000  1.0
  C  C270  1  0.59676000  0.00931000  0.44445000  1.0
  C  C271  1  0.54699000  0.10862000  0.36013000  1.0
  C  C272  1  0.51390000  0.15851000  0.37096000  1.0
  C  C273  1  0.50630000  0.19911000  0.34471000  1.0
  C  C274  1  0.56092000  0.14086000  0.29616000  1.0
  C  C275  1  0.57002000  0.10047000  0.32294000  1.0
  C  C276  1  0.48698000  0.16939000  0.41018000  1.0
  C  C277  1  0.49730000  0.17466000  0.47630000  1.0
  C  C278  1  0.87572000  0.60336000  0.86239000  1.0
  C  C279  1  0.82564000  0.61262000  0.86274000  1.0
  C  C280  1  0.79080000  0.64719000  0.83515000  1.0
  C  C281  1  0.80568000  0.67270000  0.80673000  1.0
  C  C282  1  0.85649000  0.66097000  0.80468000  1.0
  C  C283  1  0.89136000  0.62643000  0.83236000  1.0
  C  C284  1  0.76731000  0.71469000  0.78154000  1.0
  C  C285  1  0.73039000  0.76014000  0.79769000  1.0
  C  C286  1  0.69337000  0.79785000  0.77275000  1.0
  C  C287  1  0.69377000  0.79245000  0.73212000  1.0
  C  C288  1  0.73092000  0.74721000  0.71597000  1.0
  C  C289  1  0.76773000  0.70911000  0.74091000  1.0
  C  C290  1  0.65485000  0.83521000  0.70770000  1.0
  C  C291  1  0.66871000  0.86188000  0.67953000  1.0
  C  C292  1  0.63159000  0.90511000  0.65925000  1.0
  C  C293  1  0.58016000  0.92276000  0.66740000  1.0
  C  C294  1  0.56633000  0.89533000  0.69484000  1.0
  C  C295  1  0.60339000  0.85201000  0.71494000  1.0
  C  C296  1  0.73253000  0.73872000  0.67259000  1.0
  C  C297  1  0.76051000  0.75401000  0.61217000  1.0
  C  C298  1  0.72835000  0.76848000  0.84134000  1.0
  C  C299  1  0.70660000  0.82802000  0.88768000  1.0
  S  S300  1  0.36843000  0.56067000  0.20869000  1.0
  S  S301  1  0.42785000  0.43347000  0.24803000  1.0
  S  S302  1  0.43585000  0.45967000  0.14498000  1.0
  S  S303  1  0.47903000  0.51265000  0.26845000  1.0
  S  S304  1  0.48506000  0.54006000  0.16562000  1.0
  S  S305  1  0.54573000  0.41195000  0.20497000  1.0
  S  S306  1  0.51278000  0.88928000  0.60564000  1.0
  S  S307  1  0.57376000  0.94909000  0.55199000  1.0
  S  S308  1  0.44528000  0.02129000  0.58211000  1.0
  S  S309  1  0.54309000  0.86673000  0.50458000  1.0
  S  S310  1  0.41357000  0.93919000  0.53459000  1.0
  S  S311  1  0.47428000  0.99868000  0.48071000  1.0
  S  S312  1  0.05749000  0.39383000  0.80761000  1.0
  S  S313  1  0.98050000  0.35668000  0.86631000  1.0
  S  S314  1  0.92938000  0.48397000  0.82849000  1.0
  S  S315  1  0.08211000  0.36249000  0.91038000  1.0
  S  S316  1  0.03162000  0.49035000  0.87249000  1.0
  S  S317  1  0.95479000  0.45366000  0.93147000  1.0
  O  O318  1  0.22698000  0.61797000  0.00093000  1.0
  O  O319  1  0.63206000  0.12934000  0.25751000  1.0
  O  O320  1  0.36699000  0.37176000  0.96552000  1.0
  O  O321  1  0.55290000  0.60037000  0.38747000  1.0
  O  O322  1  0.32029000  0.82104000  0.38229000  1.0
  O  O323  1  0.20011000  0.09243000  0.70412000  1.0
  O  O324  1  0.20096000  0.31595000  0.65396000  1.0
  O  O325  1  0.76502000  0.54735000  0.04932000  1.0
  O  O326  1  0.72906000  0.33907000  0.04394000  1.0
  O  O327  1  0.51890000  0.17120000  0.43853000  1.0
  O  O328  1  0.71250000  0.81966000  0.84708000  1.0
  O  O329  1  0.76323000  0.75617000  0.65324000  1.0
