# generated using pymatgen
data_HoH12(C7O2)3
_symmetry_space_group_name_H-M   'P 1'
_cell_length_a   24.99462506
_cell_length_b   24.99365000
_cell_length_c   40.18170000
_cell_angle_alpha   90.00000000
_cell_angle_beta   90.00000000
_cell_angle_gamma   119.99612884
_symmetry_Int_Tables_number   1
_chemical_formula_structural   HoH12(C7O2)3
_chemical_formula_sum   'Ho12 H144 C252 O72'
_cell_volume   21739.63201406
_cell_formula_units_Z   12
loop_
 _symmetry_equiv_pos_site_id
 _symmetry_equiv_pos_as_xyz
  1  'x, y, z'
loop_
 _atom_site_type_symbol
 _atom_site_label
 _atom_site_symmetry_multiplicity
 _atom_site_fract_x
 _atom_site_fract_y
 _atom_site_fract_z
 _atom_site_occupancy
  C  C0  1  0.62258000  0.17360000  0.04599000  1.0
  C  C1  1  0.88830000  0.17690000  0.91692000  1.0
  C  C2  1  0.79878000  0.26642000  0.01224000  1.0
  C  C3  1  0.68478000  0.08982000  0.93718000  1.0
  C  C4  1  0.71730000  0.22580000  0.92651000  1.0
  C  C5  1  0.78998000  0.12498000  0.03315000  1.0
  C  C6  1  0.16072000  0.52242000  0.69958000  1.0
  C  C7  1  0.09678000  0.21226000  0.57688000  1.0
  C  C8  1  0.21704000  0.38400000  0.66595000  1.0
  C  C9  1  0.02866000  0.34384000  0.60744000  1.0
  C  C10  1  0.18330000  0.44206000  0.57901000  1.0
  C  C11  1  0.07254000  0.29314000  0.69330000  1.0
  C  C12  1  0.48174000  0.29160000  0.38063000  1.0
  C  C13  1  0.18538000  0.06436000  0.24315000  1.0
  C  C14  1  0.33634000  0.10242000  0.34178000  1.0
  C  C15  1  0.32874000  0.26468000  0.27862000  1.0
  C  C16  1  0.41594000  0.19302000  0.25907000  1.0
  C  C17  1  0.24928000  0.17150000  0.36107000  1.0
  C  C18  1  0.29056000  0.77110000  0.03586000  1.0
  C  C19  1  0.02672000  0.81014000  0.91506000  1.0
  C  C20  1  0.10042000  0.71180000  0.00934000  1.0
  C  C21  1  0.23302000  0.88818000  0.93720000  1.0
  C  C22  1  0.17474000  0.72956000  0.91866000  1.0
  C  C23  1  0.15220000  0.86296000  0.02719000  1.0
  C  C24  1  0.74054000  0.44770000  0.71248000  1.0
  C  C25  1  0.77106000  0.73786000  0.58301000  1.0
  C  C26  1  0.66834000  0.56288000  0.67321000  1.0
  C  C27  1  0.86146000  0.62080000  0.61355000  1.0
  C  C28  1  0.71286000  0.51304000  0.58947000  1.0
  C  C29  1  0.81644000  0.67518000  0.69980000  1.0
  C  C30  1  0.42380000  0.66298000  0.37124000  1.0
  C  C31  1  0.72232000  0.93200000  0.24993000  1.0
  C  C32  1  0.54402000  0.85990000  0.33478000  1.0
  C  C33  1  0.60548000  0.72422000  0.28275000  1.0
  C  C34  1  0.50060000  0.76196000  0.24982000  1.0
  C  C35  1  0.64912000  0.82510000  0.36652000  1.0
  C  C36  1  0.71824000  0.34714000  0.80393000  1.0
  C  C37  1  0.66834000  0.35052000  0.79004000  1.0
  C  C38  1  0.67482000  0.38088000  0.75961000  1.0
  C  C39  1  0.73128000  0.40854000  0.74224000  1.0
  C  C40  1  0.78040000  0.40322000  0.75540000  1.0
  C  C41  1  0.77394000  0.37282000  0.78574000  1.0
  C  C42  1  0.71352000  0.31892000  0.83758000  1.0
  C  C43  1  0.76456000  0.34508000  0.85923000  1.0
  C  C44  1  0.76318000  0.31662000  0.88939000  1.0
  C  C45  1  0.71048000  0.26166000  0.89922000  1.0
  C  C46  1  0.65800000  0.23672000  0.87872000  1.0
  C  C47  1  0.65944000  0.26518000  0.84818000  1.0
  C  C48  1  0.31442000  0.57154000  0.45838000  1.0
  C  C49  1  0.34486000  0.54608000  0.44046000  1.0
  C  C50  1  0.37866000  0.57472000  0.41164000  1.0
  C  C51  1  0.38264000  0.62938000  0.39973000  1.0
  C  C52  1  0.35168000  0.65460000  0.41727000  1.0
  C  C53  1  0.31826000  0.62620000  0.44637000  1.0
  C  C54  1  0.27832000  0.54016000  0.48909000  1.0
  C  C55  1  0.28126000  0.57340000  0.51809000  1.0
  C  C56  1  0.24968000  0.54238000  0.54730000  1.0
  C  C57  1  0.21422000  0.47746000  0.54807000  1.0
  C  C58  1  0.21002000  0.44490000  0.51860000  1.0
  C  C59  1  0.24146000  0.47560000  0.48976000  1.0
  C  C60  1  0.53816000  0.18574000  0.13773000  1.0
  C  C61  1  0.50622000  0.13456000  0.11621000  1.0
  C  C62  1  0.53250000  0.13070000  0.08600000  1.0
  C  C63  1  0.59092000  0.17838000  0.07622000  1.0
  C  C64  1  0.62204000  0.23018000  0.09711000  1.0
  C  C65  1  0.59636000  0.23362000  0.12744000  1.0
  C  C66  1  0.51140000  0.18882000  0.17077000  1.0
  C  C67  1  0.52368000  0.24580000  0.18476000  1.0
  C  C68  1  0.49640000  0.24802000  0.21496000  1.0
  C  C69  1  0.45566000  0.19334000  0.23167000  1.0
  C  C70  1  0.44462000  0.13676000  0.21838000  1.0
  C  C71  1  0.47260000  0.13452000  0.18865000  1.0
  C  C72  1  0.17626000  0.61714000  0.79224000  1.0
  C  C73  1  0.22318000  0.60532000  0.78183000  1.0
  C  C74  1  0.21988000  0.57788000  0.75084000  1.0
  C  C75  1  0.16924000  0.56080000  0.72952000  1.0
  C  C76  1  0.12346000  0.57442000  0.73922000  1.0
  C  C77  1  0.12720000  0.60274000  0.76994000  1.0
  C  C78  1  0.17718000  0.64262000  0.82633000  1.0
  C  C79  1  0.12148000  0.62600000  0.84303000  1.0
  C  C80  1  0.12136000  0.65224000  0.87374000  1.0
  C  C81  1  0.17692000  0.69484000  0.88925000  1.0
  C  C82  1  0.23288000  0.70944000  0.87373000  1.0
  C  C83  1  0.23306000  0.68394000  0.84252000  1.0
  C  C84  1  0.59006000  0.37918000  0.46881000  1.0
  C  C85  1  0.57332000  0.41180000  0.44648000  1.0
  C  C86  1  0.53976000  0.38378000  0.41752000  1.0
  C  C87  1  0.52202000  0.32232000  0.40988000  1.0
  C  C88  1  0.53906000  0.28960000  0.43188000  1.0
  C  C89  1  0.57244000  0.31758000  0.46110000  1.0
  C  C90  1  0.62566000  0.41010000  0.49979000  1.0
  C  C91  1  0.61184000  0.37950000  0.53082000  1.0
  C  C92  1  0.64196000  0.41150000  0.56013000  1.0
  C  C93  1  0.68632000  0.47474000  0.55895000  1.0
  C  C94  1  0.70212000  0.50404000  0.52768000  1.0
  C  C95  1  0.67248000  0.47232000  0.49868000  1.0
  C  C96  1  0.37702000  0.75350000  0.12542000  1.0
  C  C97  1  0.31742000  0.70716000  0.11609000  1.0
  C  C98  1  0.29060000  0.71190000  0.08634000  1.0
  C  C99  1  0.32234000  0.76338000  0.06525000  1.0
  C  C100  1  0.38204000  0.80952000  0.07434000  1.0
  C  C101  1  0.40910000  0.80454000  0.10394000  1.0
  C  C102  1  0.40602000  0.74908000  0.15723000  1.0
  C  C103  1  0.46902000  0.76744000  0.15797000  1.0
  C  C104  1  0.49808000  0.76820000  0.18780000  1.0
  C  C105  1  0.46534000  0.75070000  0.21811000  1.0
  C  C106  1  0.40156000  0.72932000  0.21736000  1.0
  C  C107  1  0.37220000  0.72850000  0.18722000  1.0
  C  C108  1  0.49088000  0.99426000  0.91961000  1.0
  C  C109  1  0.53106000  0.02730000  0.89335000  1.0
  C  C110  1  0.59512000  0.05816000  0.89843000  1.0
  C  C111  1  0.61882000  0.05614000  0.92978000  1.0
  C  C112  1  0.57846000  0.02342000  0.95579000  1.0
  C  C113  1  0.51542000  0.99352000  0.95089000  1.0
  C  C114  1  0.42324000  0.96102000  0.91591000  1.0
  C  C115  1  0.39226000  0.98962000  0.90200000  1.0
  C  C116  1  0.32850000  0.96372000  0.90688000  1.0
  C  C117  1  0.29642000  0.91040000  0.92640000  1.0
  C  C118  1  0.32682000  0.88000000  0.93801000  1.0
  C  C119  1  0.38906000  0.90390000  0.93191000  1.0
  C  C120  1  0.92840000  0.50000000  0.58749000  1.0
  C  C121  1  0.95128000  0.55656000  0.57086000  1.0
  C  C122  1  0.92836000  0.59582000  0.57873000  1.0
  C  C123  1  0.88434000  0.57948000  0.60410000  1.0
  C  C124  1  0.86110000  0.52248000  0.62008000  1.0
  C  C125  1  0.88234000  0.48262000  0.61159000  1.0
  C  C126  1  0.95966000  0.46414000  0.58522000  1.0
  C  C127  1  0.92854000  0.40342000  0.57308000  1.0
  C  C128  1  0.95254000  0.36440000  0.57894000  1.0
  C  C129  1  0.00630000  0.38550000  0.59801000  1.0
  C  C130  1  0.03830000  0.44688000  0.60888000  1.0
  C  C131  1  0.01558000  0.48624000  0.60219000  1.0
  C  C132  1  0.49442000  0.52796000  0.27619000  1.0
  C  C133  1  0.50402000  0.55974000  0.30651000  1.0
  C  C134  1  0.54370000  0.62280000  0.30838000  1.0
  C  C135  1  0.57144000  0.65702000  0.27977000  1.0
  C  C136  1  0.56266000  0.62664000  0.24923000  1.0
  C  C137  1  0.52500000  0.56228000  0.24752000  1.0
  C  C138  1  0.45278000  0.45970000  0.27524000  1.0
  C  C139  1  0.44356000  0.42494000  0.30437000  1.0
  C  C140  1  0.40062000  0.36258000  0.30515000  1.0
  C  C141  1  0.36954000  0.33152000  0.27641000  1.0
  C  C142  1  0.37916000  0.36462000  0.24676000  1.0
  C  C143  1  0.41986000  0.42864000  0.24629000  1.0
  C  C144  1  0.39332000  0.97168000  0.33574000  1.0
  C  C145  1  0.37312000  0.98176000  0.36656000  1.0
  C  C146  1  0.34640000  0.01896000  0.36842000  1.0
  C  C147  1  0.33852000  0.04530000  0.33944000  1.0
  C  C148  1  0.34962000  0.02738000  0.30833000  1.0
  C  C149  1  0.37784000  0.99168000  0.30649000  1.0
  C  C150  1  0.43542000  0.94624000  0.33433000  1.0
  C  C151  1  0.47966000  0.96024000  0.35955000  1.0
  C  C152  1  0.51868000  0.93548000  0.35859000  1.0
  C  C153  1  0.51534000  0.89804000  0.33196000  1.0
  C  C154  1  0.47384000  0.88680000  0.30581000  1.0
  C  C155  1  0.43368000  0.91004000  0.30720000  1.0
  C  C156  1  0.91880000  0.45990000  0.01484000  1.0
  C  C157  1  0.91926000  0.42604000  0.98698000  1.0
  C  C158  1  0.88308000  0.36188000  0.98668000  1.0
  C  C159  1  0.84656000  0.33108000  0.01435000  1.0
  C  C160  1  0.84878000  0.36456000  0.04280000  1.0
  C  C161  1  0.88404000  0.42848000  0.04292000  1.0
  C  C162  1  0.95630000  0.52770000  0.01511000  1.0
  C  C163  1  0.96272000  0.56198000  0.98618000  1.0
  C  C164  1  0.00600000  0.62476000  0.98509000  1.0
  C  C165  1  0.04290000  0.65358000  0.01298000  1.0
  C  C166  1  0.03186000  0.62096000  0.04287000  1.0
  C  C167  1  0.98924000  0.55828000  0.04388000  1.0
  C  C168  1  0.47604000  0.48626000  0.66502000  1.0
  C  C169  1  0.51100000  0.48826000  0.63719000  1.0
  C  C170  1  0.57500000  0.51990000  0.63876000  1.0
  C  C171  1  0.60496000  0.54826000  0.66850000  1.0
  C  C172  1  0.57086000  0.54926000  0.69576000  1.0
  C  C173  1  0.50676000  0.51938000  0.69386000  1.0
  C  C174  1  0.40796000  0.44952000  0.66407000  1.0
  C  C175  1  0.37616000  0.44434000  0.63435000  1.0
  C  C176  1  0.31222000  0.41556000  0.63422000  1.0
  C  C177  1  0.27924000  0.39352000  0.66403000  1.0
  C  C178  1  0.31004000  0.39432000  0.69321000  1.0
  C  C179  1  0.37406000  0.42134000  0.69312000  1.0
  C  C180  1  0.80362000  0.03448000  0.16096000  1.0
  C  C181  1  0.78024000  0.05752000  0.18547000  1.0
  C  C182  1  0.75844000  0.02668000  0.21570000  1.0
  C  C183  1  0.75962000  0.97218000  0.22225000  1.0
  C  C184  1  0.78746000  0.95168000  0.19905000  1.0
  C  C185  1  0.80910000  0.98246000  0.16861000  1.0
  C  C186  1  0.81430000  0.06010000  0.12655000  1.0
  C  C187  1  0.79278000  0.02008000  0.09891000  1.0
  C  C188  1  0.79008000  0.04238000  0.06737000  1.0
  C  C189  1  0.80906000  0.10492000  0.06293000  1.0
  C  C190  1  0.83450000  0.14570000  0.08982000  1.0
  C  C191  1  0.83766000  0.12362000  0.12128000  1.0
  C  C192  1  0.00974000  0.21702000  0.79010000  1.0
  C  C193  1  0.97084000  0.19000000  0.76231000  1.0
  C  C194  1  0.99236000  0.21106000  0.72998000  1.0
  C  C195  1  0.05282000  0.25964000  0.72509000  1.0
  C  C196  1  0.09272000  0.28362000  0.75246000  1.0
  C  C197  1  0.07170000  0.26212000  0.78452000  1.0
  C  C198  1  0.98456000  0.20382000  0.82464000  1.0
  C  C199  1  0.00370000  0.25242000  0.84773000  1.0
  C  C200  1  0.97522000  0.24254000  0.87878000  1.0
  C  C201  1  0.92676000  0.18392000  0.88754000  1.0
  C  C202  1  0.90970000  0.13448000  0.86538000  1.0
  C  C203  1  0.93822000  0.14434000  0.83419000  1.0
  C  C204  1  0.14756000  0.15408000  0.45009000  1.0
  C  C205  1  0.20052000  0.20986000  0.44185000  1.0
  C  C206  1  0.23078000  0.21616000  0.41186000  1.0
  C  C207  1  0.20912000  0.16672000  0.38930000  1.0
  C  C208  1  0.15376000  0.11186000  0.39651000  1.0
  C  C209  1  0.12306000  0.10556000  0.42687000  1.0
  C  C210  1  0.12194000  0.14772000  0.48391000  1.0
  C  C211  1  0.06850000  0.15156000  0.48922000  1.0
  C  C212  1  0.05570000  0.16570000  0.52098000  1.0
  C  C213  1  0.09662000  0.17668000  0.54754000  1.0
  C  C214  1  0.14626000  0.16624000  0.54277000  1.0
  C  C215  1  0.15882000  0.15194000  0.51122000  1.0
  C  C216  1  0.12644000  0.96744000  0.15125000  1.0
  C  C217  1  0.14088000  0.02944000  0.15293000  1.0
  C  C218  1  0.15378000  0.06002000  0.18369000  1.0
  C  C219  1  0.15284000  0.02908000  0.21310000  1.0
  C  C220  1  0.13224000  0.96568000  0.21172000  1.0
  C  C221  1  0.11862000  0.93506000  0.18117000  1.0
  C  C222  1  0.12952000  0.93948000  0.11908000  1.0
  C  C223  1  0.16216000  0.90738000  0.11784000  1.0
  C  C224  1  0.16912000  0.88324000  0.08807000  1.0
  C  C225  1  0.14370000  0.89024000  0.05827000  1.0
  C  C226  1  0.11048000  0.92202000  0.05926500  1.0
  C  C227  1  0.10394000  0.94696000  0.08941000  1.0
  C  C228  1  0.89134000  0.76464000  0.79257000  1.0
  C  C229  1  0.92794000  0.78426000  0.76352000  1.0
  C  C230  1  0.90236000  0.75912000  0.73239000  1.0
  C  C231  1  0.83998000  0.71364000  0.72982000  1.0
  C  C232  1  0.80254000  0.69688000  0.75824000  1.0
  C  C233  1  0.82768000  0.72274000  0.78917000  1.0
  C  C234  1  0.92040000  0.78154000  0.82631000  1.0
  C  C235  1  0.89854000  0.73730000  0.85203000  1.0
  C  C236  1  0.93068000  0.74886000  0.88202000  1.0
  C  C237  1  0.98582000  0.80472000  0.88710000  1.0
  C  C238  1  0.00582000  0.85064000  0.86248000  1.0
  C  C239  1  0.97338000  0.83924000  0.83241000  1.0
  C  C240  1  0.73142000  0.83502000  0.46109000  1.0
  C  C241  1  0.75640000  0.82434000  0.43203000  1.0
  C  C242  1  0.73362000  0.82688000  0.40050000  1.0
  C  C243  1  0.68510000  0.83942000  0.39753000  1.0
  C  C244  1  0.66312000  0.85426000  0.42612000  1.0
  C  C245  1  0.68666000  0.85308000  0.45746000  1.0
  C  C246  1  0.74580000  0.81974000  0.49474000  1.0
  C  C247  1  0.69868000  0.79166000  0.51874000  1.0
  C  C248  1  0.70862000  0.76908000  0.54847000  1.0
  C  C249  1  0.76576000  0.77346000  0.55506000  1.0
  C  C250  1  0.81414000  0.80448000  0.53215000  1.0
  C  C251  1  0.80430000  0.82746000  0.50230000  1.0
  H  H252  1  0.63610000  0.38442000  0.75023000  1.0
  H  H253  1  0.82444000  0.42388000  0.74268000  1.0
  H  H254  1  0.80454000  0.33640000  0.90456000  1.0
  H  H255  1  0.61736000  0.19346000  0.88530000  1.0
  H  H256  1  0.81306000  0.37000000  0.79508000  1.0
  H  H257  1  0.80644000  0.38712000  0.85258000  1.0
  H  H258  1  0.62490000  0.33168000  0.80323000  1.0
  H  H259  1  0.61924000  0.24346000  0.83221000  1.0
  H  H260  1  0.40254000  0.55452000  0.39897000  1.0
  H  H261  1  0.35444000  0.69710000  0.40896000  1.0
  H  H262  1  0.25412000  0.56912000  0.56936000  1.0
  H  H263  1  0.18276000  0.39500000  0.51763000  1.0
  H  H264  1  0.29514000  0.64688000  0.45934000  1.0
  H  H265  1  0.30934000  0.62324000  0.51849000  1.0
  H  H266  1  0.34368000  0.50450000  0.44913000  1.0
  H  H267  1  0.23686000  0.44846000  0.46783000  1.0
  H  H268  1  0.50734000  0.09022000  0.07048000  1.0
  H  H269  1  0.66746000  0.26760000  0.09053000  1.0
  H  H270  1  0.50440000  0.29208000  0.22423000  1.0
  H  H271  1  0.41294000  0.09380000  0.23066000  1.0
  H  H272  1  0.62324000  0.27334000  0.14316000  1.0
  H  H273  1  0.55246000  0.28878000  0.17183000  1.0
  H  H274  1  0.46072000  0.09718000  0.12257000  1.0
  H  H275  1  0.46306000  0.08986000  0.17958000  1.0
  H  H276  1  0.25570000  0.56748000  0.74427000  1.0
  H  H277  1  0.08392000  0.56198000  0.72336000  1.0
  H  H278  1  0.07746000  0.63996000  0.88516000  1.0
  H  H279  1  0.27634000  0.74298000  0.88485000  1.0
  H  H280  1  0.09096000  0.61260000  0.77626000  1.0
  H  H281  1  0.07744000  0.59292000  0.83233000  1.0
  H  H282  1  0.26146000  0.61498000  0.79808000  1.0
  H  H283  1  0.27704000  0.69852000  0.83063000  1.0
  H  H284  1  0.52682000  0.41010000  0.40136000  1.0
  H  H285  1  0.52554000  0.24194000  0.42688000  1.0
  H  H286  1  0.62858000  0.38754000  0.58375000  1.0
  H  H287  1  0.73688000  0.55238000  0.52557000  1.0
  H  H288  1  0.58474000  0.29114000  0.47752000  1.0
  H  H289  1  0.57602000  0.33156000  0.53267000  1.0
  H  H290  1  0.58496000  0.45888000  0.45172000  1.0
  H  H291  1  0.68580000  0.49714000  0.47530000  1.0
  H  H292  1  0.24426000  0.67574000  0.08026000  1.0
  H  H293  1  0.40742000  0.85006000  0.05891000  1.0
  H  H294  1  0.54708000  0.78408000  0.18711000  1.0
  H  H295  1  0.37498000  0.71588000  0.24017000  1.0
  H  H296  1  0.45476000  0.84160000  0.11039000  1.0
  H  H297  1  0.49636000  0.78202000  0.13542000  1.0
  H  H298  1  0.29148000  0.66700000  0.13172000  1.0
  H  H299  1  0.32354000  0.71404000  0.18765000  1.0
  H  H300  1  0.62582000  0.08382000  0.87816000  1.0
  H  H301  1  0.59550000  0.02158000  0.98030000  1.0
  H  H302  1  0.30544000  0.98758000  0.89756000  1.0
  H  H303  1  0.30342000  0.83906000  0.95304000  1.0
  H  H304  1  0.48576000  0.97026000  0.97195000  1.0
  H  H305  1  0.41770000  0.03374000  0.88951000  1.0
  H  H306  1  0.51306000  0.02888000  0.86910000  1.0
  H  H307  1  0.41148000  0.88000000  0.94212000  1.0
  H  H308  1  0.94648000  0.63962000  0.56595000  1.0
  H  H309  1  0.82672000  0.50864000  0.63925000  1.0
  H  H310  1  0.92752000  0.31712000  0.57023000  1.0
  H  H311  1  0.08012000  0.46424000  0.62321000  1.0
  H  H312  1  0.86522000  0.43964000  0.62513000  1.0
  H  H313  1  0.88458000  0.38560000  0.56051000  1.0
  H  H314  1  0.98786000  0.57094000  0.55265000  1.0
  H  H315  1  0.03938000  0.53264000  0.61230000  1.0
  H  H316  1  0.55172000  0.64520000  0.33233000  1.0
  H  H317  1  0.58424000  0.65252000  0.22682000  1.0
  H  H318  1  0.39134000  0.33846000  0.32853000  1.0
  H  H319  1  0.35488000  0.34132000  0.22426000  1.0
  H  H320  1  0.52000000  0.53984000  0.22380000  1.0
  H  H321  1  0.46896000  0.44530000  0.32700000  1.0
  H  H322  1  0.48034000  0.53672000  0.32912000  1.0
  H  H323  1  0.42458000  0.45346000  0.22345000  1.0
  H  H324  1  0.33710000  0.03154000  0.39264000  1.0
  H  H325  1  0.34320000  0.04662000  0.28555000  1.0
  H  H326  1  0.54994000  0.94384000  0.37914000  1.0
  H  H327  1  0.46942000  0.85668000  0.28535000  1.0
  H  H328  1  0.39216000  0.98458000  0.28227000  1.0
  H  H329  1  0.48386000  0.98976000  0.38025000  1.0
  H  H330  1  0.38170000  0.96446000  0.38944000  1.0
  H  H331  1  0.40000000  0.89776000  0.28751000  1.0
  H  H332  1  0.88180000  0.33676000  0.96446000  1.0
  H  H333  1  0.82080000  0.34156000  0.06444000  1.0
  H  H334  1  0.01368000  0.64942000  0.96182000  1.0
  H  H335  1  0.05980000  0.64264000  0.06472000  1.0
  H  H336  1  0.88260000  0.45322000  0.06469000  1.0
  H  H337  1  0.93644000  0.53976000  0.96396000  1.0
  H  H338  1  0.94712000  0.44906000  0.96534000  1.0
  H  H339  1  0.98536000  0.53322000  0.06655000  1.0
  H  H340  1  0.60058000  0.51762000  0.61759000  1.0
  H  H341  1  0.59358000  0.57070000  0.71895000  1.0
  H  H342  1  0.28932000  0.41584000  0.61140000  1.0
  H  H343  1  0.28504000  0.37734000  0.71638000  1.0
  H  H344  1  0.48140000  0.52082000  0.71533000  1.0
  H  H345  1  0.40042000  0.46572000  0.61154000  1.0
  H  H346  1  0.48924000  0.46288000  0.61470000  1.0
  H  H347  1  0.39694000  0.42226000  0.71615000  1.0
  H  H348  1  0.73720000  0.04354000  0.23311000  1.0
  H  H349  1  0.78884000  0.90966000  0.20344000  1.0
  H  H350  1  0.76904000  0.01006000  0.04703000  1.0
  H  H351  1  0.84854000  0.19404000  0.08691000  1.0
  H  H352  1  0.82762000  0.96398000  0.15049000  1.0
  H  H353  1  0.77362000  0.97084000  0.10201000  1.0
  H  H354  1  0.77458000  0.09696000  0.18049000  1.0
  H  H355  1  0.85530000  0.15584000  0.14186000  1.0
  H  H356  1  0.96068000  0.19246000  0.70921000  1.0
  H  H357  1  0.13970000  0.32110000  0.74918000  1.0
  H  H358  1  0.98908000  0.28164000  0.89521000  1.0
  H  H359  1  0.87224000  0.08876000  0.87143000  1.0
  H  H360  1  0.10342000  0.28290000  0.80512000  1.0
  H  H361  1  0.03852000  0.29908000  0.84124000  1.0
  H  H362  1  0.92274000  0.15544000  0.76561000  1.0
  H  H363  1  0.92284000  0.10572000  0.81726000  1.0
  H  H364  1  0.27268000  0.25940000  0.40687000  1.0
  H  H365  1  0.13616000  0.07298000  0.37962000  1.0
  H  H366  1  0.01730000  0.17384000  0.52390000  1.0
  H  H367  1  0.17846000  0.17430000  0.56278000  1.0
  H  H368  1  0.08200000  0.06226000  0.43280000  1.0
  H  H369  1  0.03986000  0.14908000  0.46841000  1.0
  H  H370  1  0.21962000  0.24816000  0.45920000  1.0
  H  H371  1  0.20040000  0.14934000  0.50760000  1.0
  H  H372  1  0.16984000  0.10904000  0.18404000  1.0
  H  H373  1  0.13068000  0.94064000  0.23403000  1.0
  H  H374  1  0.19466000  0.85880000  0.08868000  1.0
  H  H375  1  0.09020000  0.92816000  0.03684000  1.0
  H  H376  1  0.10604000  0.88686000  0.18080000  1.0
  H  H377  1  0.18378000  0.90188000  0.13992000  1.0
  H  H378  1  0.14726000  0.05570000  0.13040000  1.0
  H  H379  1  0.07876000  0.97178000  0.08955000  1.0
  H  H380  1  0.93222000  0.77184000  0.71082000  1.0
  H  H381  1  0.75430000  0.66158000  0.75676000  1.0
  H  H382  1  0.91424000  0.71242000  0.90044000  1.0
  H  H383  1  0.04824000  0.89418000  0.86569000  1.0
  H  H384  1  0.79756000  0.70758000  0.81066000  1.0
  H  H385  1  0.85860000  0.69198000  0.84840000  1.0
  H  H386  1  0.97718000  0.81582000  0.76500000  1.0
  H  H387  1  0.99104000  0.87488000  0.81354000  1.0
  H  H388  1  0.75058000  0.81434000  0.37879000  1.0
  H  H389  1  0.62558000  0.86400000  0.42435000  1.0
  H  H390  1  0.67028000  0.74516000  0.56554000  1.0
  H  H391  1  0.85870000  0.80840000  0.53652000  1.0
  H  H392  1  0.66748000  0.86346000  0.47900000  1.0
  H  H393  1  0.65268000  0.78366000  0.51391000  1.0
  H  H394  1  0.79048000  0.80984000  0.43362000  1.0
  H  H395  1  0.84202000  0.84962000  0.48475000  1.0
  Ho  Ho396  1  0.69504000  0.16272000  0.99944000  1.0
  Ho  Ho397  1  0.80126000  0.17008000  0.95798000  1.0
  Ho  Ho398  1  0.13694000  0.42892000  0.65699000  1.0
  Ho  Ho399  1  0.11334000  0.30698000  0.61567000  1.0
  Ho  Ho400  1  0.39178000  0.22908000  0.33442000  1.0
  Ho  Ho401  1  0.27460000  0.13894000  0.28592000  1.0
  Ho  Ho402  1  0.21988000  0.79280000  0.99258000  1.0
  Ho  Ho403  1  0.11272000  0.80464000  0.95284000  1.0
  Ho  Ho404  1  0.76214000  0.53728000  0.66714000  1.0
  Ho  Ho405  1  0.77078000  0.65090000  0.62274000  1.0
  Ho  Ho406  1  0.51632000  0.73864000  0.32950000  1.0
  Ho  Ho407  1  0.63238000  0.84478000  0.28769000  1.0
  O  O408  1  0.67750000  0.21806000  0.03682000  1.0
  O  O409  1  0.60574000  0.12300000  0.02826000  1.0
  O  O410  1  0.74846000  0.24690000  0.03016000  1.0
  O  O411  1  0.78358000  0.23494000  0.98450000  1.0
  O  O412  1  0.73762000  0.12716000  0.03622000  1.0
  O  O413  1  0.82528000  0.14036000  0.00568000  1.0
  O  O414  1  0.83748000  0.12490000  0.92446000  1.0
  O  O415  1  0.89272000  0.22444000  0.93371000  1.0
  O  O416  1  0.72834000  0.12918000  0.91744000  1.0
  O  O417  1  0.70542000  0.09890000  0.96738000  1.0
  O  O418  1  0.76220000  0.21118000  0.92127000  1.0
  O  O419  1  0.68064000  0.20930000  0.95398000  1.0
  O  O420  1  0.20200000  0.50864000  0.68887000  1.0
  O  O421  1  0.10712000  0.48732000  0.68503000  1.0
  O  O422  1  0.20470000  0.41410000  0.68768000  1.0
  O  O423  1  0.18810000  0.38480000  0.63985000  1.0
  O  O424  1  0.09172000  0.35412000  0.69564000  1.0
  O  O425  1  0.07346000  0.26256000  0.66558000  1.0
  O  O426  1  0.05324000  0.22572000  0.58351000  1.0
  O  O427  1  0.14784000  0.24882000  0.59320000  1.0
  O  O428  1  0.03146000  0.30402000  0.58805000  1.0
  O  O429  1  0.06476000  0.35154000  0.63183000  1.0
  O  O430  1  0.15980000  0.38030000  0.57663000  1.0
  O  O431  1  0.18206000  0.47260000  0.60691000  1.0
  O  O432  1  0.46202000  0.23438000  0.37140000  1.0
  O  O433  1  0.45414000  0.31522000  0.36328000  1.0
  O  O434  1  0.36808000  0.14266000  0.36427000  1.0
  O  O435  1  0.34322000  0.13550000  0.31606000  1.0
  O  O436  1  0.31056000  0.20770000  0.36712000  1.0
  O  O437  1  0.22318000  0.14030000  0.33239000  1.0
  O  O438  1  0.20164000  0.12250000  0.24846000  1.0
  O  O439  1  0.21598000  0.04692000  0.26269000  1.0
  O  O440  1  0.29626000  0.22630000  0.25566000  1.0
  O  O441  1  0.32328000  0.23186000  0.30402000  1.0
  O  O442  1  0.35472000  0.15790000  0.25287000  1.0
  O  O443  1  0.44228000  0.22496000  0.28766000  1.0
  O  O444  1  0.23352000  0.73108000  0.02763000  1.0
  O  O445  1  0.31046000  0.82234000  0.01855000  1.0
  O  O446  1  0.14780000  0.72392000  0.02754000  1.0
  O  O447  1  0.12280000  0.73736000  0.98104000  1.0
  O  O448  1  0.19564000  0.84578000  0.02902000  1.0
  O  O449  1  0.11548000  0.85482000  0.00049000  1.0
  O  O450  1  0.08374000  0.85600000  0.91858000  1.0
  O  O451  1  0.01642000  0.76308000  0.93402000  1.0
  O  O452  1  0.18700000  0.87876000  0.91862000  1.0
  O  O453  1  0.20900000  0.85840000  0.96403000  1.0
  O  O454  1  0.13392000  0.74992000  0.91603000  1.0
  O  O455  1  0.21220000  0.73828000  0.94521000  1.0
  O  O456  1  0.69866000  0.45966000  0.70080000  1.0
  O  O457  1  0.79402000  0.48304000  0.69792000  1.0
  O  O458  1  0.67980000  0.53086000  0.69436000  1.0
  O  O459  1  0.70390000  0.57026000  0.64848000  1.0
  O  O460  1  0.80178000  0.61570000  0.70403000  1.0
  O  O461  1  0.81094000  0.70114000  0.67131000  1.0
  O  O462  1  0.82030000  0.73332000  0.58940000  1.0
  O  O463  1  0.72302000  0.69668000  0.59989000  1.0
  O  O464  1  0.84976000  0.65286000  0.59278000  1.0
  O  O465  1  0.82922000  0.61546000  0.63943000  1.0
  O  O466  1  0.72818000  0.57296000  0.58578000  1.0
  O  O467  1  0.71922000  0.48690000  0.61798000  1.0
  O  O468  1  0.43053000  0.71443000  0.35860000  1.0
  O  O469  1  0.46578000  0.65124000  0.35926000  1.0
  O  O470  1  0.52528000  0.82018000  0.35852000  1.0
  O  O471  1  0.54742000  0.83036000  0.30947000  1.0
  O  O472  1  0.58958000  0.77950000  0.36927000  1.0
  O  O473  1  0.67738000  0.85668000  0.33839000  1.0
  O  O474  1  0.71930000  0.87948000  0.25810000  1.0
  O  O475  1  0.67766000  0.93726000  0.26393000  1.0
  O  O476  1  0.63054000  0.76392000  0.25923000  1.0
  O  O477  1  0.60040000  0.75372000  0.30731000  1.0
  O  O478  1  0.56026000  0.80738000  0.24778000  1.0
  O  O479  1  0.47214000  0.72924000  0.27790000  1.0
