# generated using pymatgen
data_CeH18(C8O3)3
_symmetry_space_group_name_H-M   'P 1'
_cell_length_a   37.68210000
_cell_length_b   37.68210000
_cell_length_c   41.66950000
_cell_angle_alpha   90.00000000
_cell_angle_beta   90.00000000
_cell_angle_gamma   120.00000000
_symmetry_Int_Tables_number   1
_chemical_formula_structural   CeH18(C8O3)3
_chemical_formula_sum   'Ce12 H216 C288 O108'
_cell_volume   51241.17932083
_cell_formula_units_Z   12
loop_
 _symmetry_equiv_pos_site_id
 _symmetry_equiv_pos_as_xyz
  1  'x, y, z'
loop_
 _atom_site_type_symbol
 _atom_site_label
 _atom_site_symmetry_multiplicity
 _atom_site_fract_x
 _atom_site_fract_y
 _atom_site_fract_z
 _atom_site_occupancy
  Ce  Ce0  1  0.76986000  0.12737000  0.96448000  1.0
  Ce  Ce1  1  0.76253000  0.23566000  0.03156000  1.0
  Ce  Ce2  1  0.09579000  0.33504000  0.61959000  1.0
  Ce  Ce3  1  0.20362000  0.43012000  0.69963000  1.0
  Ce  Ce4  1  0.32293000  0.20030000  0.29623000  1.0
  Ce  Ce5  1  0.44376000  0.22243000  0.36398000  1.0
  Ce  Ce6  1  0.18285000  0.85173000  0.96304000  1.0
  Ce  Ce7  1  0.18453000  0.73688000  0.02671000  1.0
  Ce  Ce8  1  0.85889000  0.66286000  0.61883000  1.0
  Ce  Ce9  1  0.76590000  0.54868000  0.69836000  1.0
  Ce  Ce10  1  0.60921000  0.76694000  0.29389000  1.0
  Ce  Ce11  1  0.49127000  0.73681000  0.37050000  1.0
  H  H12  1  0.74323000  0.35895000  0.90299000  1.0
  H  H13  1  0.69750000  0.31561000  0.88612000  1.0
  H  H14  1  0.70682000  0.37739000  0.86185000  1.0
  H  H15  1  0.71694000  0.34815000  0.83216000  1.0
  H  H16  1  0.78699000  0.43877000  0.74454000  1.0
  H  H17  1  0.78667000  0.39582000  0.78923000  1.0
  H  H18  1  0.74887000  0.45938000  0.85409000  1.0
  H  H19  1  0.74799000  0.50171000  0.80971000  1.0
  H  H20  1  0.69844000  0.24349000  0.87510000  1.0
  H  H21  1  0.70125000  0.19451000  0.91241000  1.0
  H  H22  1  0.81129000  0.29263000  0.95437000  1.0
  H  H23  1  0.80753000  0.34142000  0.91751000  1.0
  H  H24  1  0.30349000  0.59245000  0.51798000  1.0
  H  H25  1  0.25788000  0.54552000  0.52390000  1.0
  H  H26  1  0.29912000  0.53495000  0.48390000  1.0
  H  H27  1  0.29775000  0.50817000  0.51908000  1.0
  H  H28  1  0.40679000  0.59286000  0.41085000  1.0
  H  H29  1  0.36944000  0.54278000  0.45367000  1.0
  H  H30  1  0.38027000  0.63958000  0.51483000  1.0
  H  H31  1  0.41789000  0.68986000  0.47266000  1.0
  H  H32  1  0.31407000  0.50614000  0.58209000  1.0
  H  H33  1  0.26380000  0.44411000  0.61088000  1.0
  H  H34  1  0.17677000  0.48655000  0.60739000  1.0
  H  H35  1  0.22799000  0.54952000  0.58014000  1.0
  H  H36  1  0.59783000  0.28191000  0.22853000  1.0
  H  H37  1  0.58786000  0.31746000  0.20604000  1.0
  H  H38  1  0.64338000  0.31130000  0.18170000  1.0
  H  H39  1  0.59916000  0.29113000  0.15515000  1.0
  H  H40  1  0.62913000  0.21736000  0.07512000  1.0
  H  H41  1  0.58595000  0.22135000  0.11775000  1.0
  H  H42  1  0.68858000  0.27183000  0.18241000  1.0
  H  H43  1  0.73217000  0.26855000  0.14010000  1.0
  H  H44  1  0.50432000  0.29668000  0.20109000  1.0
  H  H45  1  0.45130000  0.28760000  0.23971000  1.0
  H  H46  1  0.47561000  0.20478000  0.29438000  1.0
  H  H47  1  0.52864000  0.21448000  0.25573000  1.0
  H  H48  1  0.22887000  0.63533000  0.88893000  1.0
  H  H49  1  0.27082000  0.68112000  0.87085000  1.0
  H  H50  1  0.26205000  0.62062000  0.84379000  1.0
  H  H51  1  0.24880000  0.65019000  0.81686000  1.0
  H  H52  1  0.18572000  0.54869000  0.73155000  1.0
  H  H53  1  0.18543000  0.59664000  0.77169000  1.0
  H  H54  1  0.21580000  0.53688000  0.84574000  1.0
  H  H55  1  0.21709000  0.48954000  0.80609000  1.0
  H  H56  1  0.26218000  0.75041000  0.86614000  1.0
  H  H57  1  0.25709000  0.79533000  0.90613000  1.0
  H  H58  1  0.15646000  0.69001000  0.95106000  1.0
  H  H59  1  0.16264000  0.64537000  0.91149000  1.0
  H  H60  1  0.68414000  0.47437000  0.49986000  1.0
  H  H61  1  0.64578000  0.47639000  0.52503000  1.0
  H  H62  1  0.61271000  0.44137000  0.47724000  1.0
  H  H63  1  0.59600000  0.40376000  0.50941000  1.0
  H  H64  1  0.52875000  0.27426000  0.46027000  1.0
  H  H65  1  0.58424000  0.32619000  0.49336000  1.0
  H  H66  1  0.61944000  0.41336000  0.41639000  1.0
  H  H67  1  0.56390000  0.36161000  0.38277000  1.0
  H  H68  1  0.65126000  0.47038000  0.59031000  1.0
  H  H69  1  0.70401000  0.52682000  0.62230000  1.0
  H  H70  1  0.79816000  0.52225000  0.56728000  1.0
  H  H71  1  0.74534000  0.46713000  0.53414000  1.0
  H  H72  1  0.41918000  0.72848000  0.17208000  1.0
  H  H73  1  0.41676000  0.76378000  0.20043000  1.0
  H  H74  1  0.38426000  0.76743000  0.15363000  1.0
  H  H75  1  0.34405000  0.73872000  0.18279000  1.0
  H  H76  1  0.22334000  0.68763000  0.12169000  1.0
  H  H77  1  0.27042000  0.67839000  0.15667000  1.0
  H  H78  1  0.36788000  0.74244000  0.08867000  1.0
  H  H79  1  0.32097000  0.75182000  0.05312000  1.0
  H  H80  1  0.39610000  0.74196000  0.26484000  1.0
  H  H81  1  0.45213000  0.75381000  0.30100000  1.0
  H  H82  1  0.47849000  0.67554000  0.24217000  1.0
  H  H83  1  0.42297000  0.66498000  0.20561000  1.0
  H  H84  1  0.44330000  0.01077000  0.91474000  1.0
  H  H85  1  0.43977000  0.96726000  0.89287000  1.0
  H  H86  1  0.50863000  0.02541000  0.88871000  1.0
  H  H87  1  0.50850000  0.98488000  0.91252000  1.0
  H  H88  1  0.62263000  0.02835000  0.98050000  1.0
  H  H89  1  0.54910000  0.00356000  0.97423000  1.0
  H  H90  1  0.57592000  0.09997000  0.90664000  1.0
  H  H91  1  0.64956000  0.12479000  0.91221000  1.0
  H  H92  1  0.38554000  0.89204000  0.91776000  1.0
  H  H93  1  0.31095000  0.85947000  0.92376000  1.0
  H  H94  1  0.32684000  0.96097000  0.98226000  1.0
  H  H95  1  0.40150000  0.99349000  0.97558000  1.0
  H  H96  1  0.00103000  0.48477000  0.54180000  1.0
  H  H97  1  0.04437000  0.53002000  0.52488000  1.0
  H  H98  1  0.98156000  0.53508000  0.52647000  1.0
  H  H99  1  0.02193000  0.57354000  0.55175000  1.0
  H  H100  1  0.97029000  0.62893000  0.62719000  1.0
  H  H101  1  0.00253000  0.58767000  0.61487000  1.0
  H  H102  1  0.90401000  0.51329000  0.55025000  1.0
  H  H103  1  0.87159000  0.55439000  0.56201000  1.0
  H  H104  1  0.10928000  0.51814000  0.55213000  1.0
  H  H105  1  0.12192000  0.46155000  0.56382000  1.0
  H  H106  1  0.01203000  0.40349000  0.62156000  1.0
  H  H107  1  0.99978000  0.46034000  0.60945000  1.0
  H  H108  1  0.43072000  0.45971000  0.32374000  1.0
  H  H109  1  0.44346000  0.50554000  0.30324000  1.0
  H  H110  1  0.49338000  0.46147000  0.30277000  1.0
  H  H111  1  0.50625000  0.50705000  0.32375000  1.0
  H  H112  1  0.50319000  0.62653000  0.25974000  1.0
  H  H113  1  0.47500000  0.55228000  0.25416000  1.0
  H  H114  1  0.58271000  0.56278000  0.29884000  1.0
  H  H115  1  0.61113000  0.63696000  0.30493000  1.0
  H  H116  1  0.35349000  0.40600000  0.29822000  1.0
  H  H117  1  0.32340000  0.33163000  0.30448000  1.0
  H  H118  1  0.43051000  0.33915000  0.26010000  1.0
  H  H119  1  0.46042000  0.41365000  0.25443000  1.0
  H  H120  1  0.47692000  0.96269000  0.39106000  1.0
  H  H121  1  0.42694000  0.92540000  0.40696000  1.0
  H  H122  1  0.44488000  0.99996000  0.40566000  1.0
  H  H123  1  0.39614000  0.96279000  0.38811000  1.0
  H  H124  1  0.37692000  0.07373000  0.35614000  1.0
  H  H125  1  0.37578000  0.00810000  0.35221000  1.0
  H  H126  1  0.50700000  0.07089000  0.36149000  1.0
  H  H127  1  0.50881000  0.13703000  0.36393000  1.0
  H  H128  1  0.38105000  0.84729000  0.36880000  1.0
  H  H129  1  0.39702000  0.79157000  0.37238000  1.0
  H  H130  1  0.52461000  0.87857000  0.35482000  1.0
  H  H131  1  0.50789000  0.93354000  0.34981000  1.0
  H  H132  1  0.96892000  0.53228000  0.93698000  1.0
  H  H133  1  0.94532000  0.55530000  0.96100000  1.0
  H  H134  1  0.91071000  0.46440000  0.94563000  1.0
  H  H135  1  0.89375000  0.49763000  0.92967000  1.0
  H  H136  1  0.77347000  0.35522000  0.97415000  1.0
  H  H137  1  0.80850000  0.42723000  0.95711000  1.0
  H  H138  1  0.90864000  0.45375000  0.02073000  1.0
  H  H139  1  0.87449000  0.38162000  0.03749000  1.0
  H  H140  1  0.97189000  0.57951000  0.02361000  1.0
  H  H141  1  0.03610000  0.64186000  0.03771000  1.0
  H  H142  1  0.10357000  0.59925000  0.98121000  1.0
  H  H143  1  0.03900000  0.53729000  0.96715000  1.0
  H  H144  1  0.46715000  0.50961000  0.65522000  1.0
  H  H145  1  0.44844000  0.45511000  0.66156000  1.0
  H  H146  1  0.50780000  0.47024000  0.69360000  1.0
  H  H147  1  0.52570000  0.52499000  0.69203000  1.0
  H  H148  1  0.66264000  0.58690000  0.67312000  1.0
  H  H149  1  0.59385000  0.57228000  0.65737000  1.0
  H  H150  1  0.55251000  0.44327000  0.65519000  1.0
  H  H151  1  0.62139000  0.45737000  0.67031000  1.0
  H  H152  1  0.38560000  0.41424000  0.70933000  1.0
  H  H153  1  0.31322000  0.39544000  0.70562000  1.0
  H  H154  1  0.35010000  0.52052000  0.68074000  1.0
  H  H155  1  0.42225000  0.53881000  0.68505000  1.0
  H  H156  1  0.69583000  0.96374000  0.08035000  1.0
  H  H157  1  0.68650000  0.99203000  0.11138000  1.0
  H  H158  1  0.71075000  0.96383000  0.15280000  1.0
  H  H159  1  0.72202000  0.93552000  0.12298000  1.0
  H  H160  1  0.65623000  0.80756000  0.18197000  1.0
  H  H161  1  0.67138000  0.85151000  0.13441000  1.0
  H  H162  1  0.63182000  0.92525000  0.18468000  1.0
  H  H163  1  0.61620000  0.88155000  0.23231000  1.0
  H  H164  1  0.74945000  0.07245000  0.13129000  1.0
  H  H165  1  0.75690000  0.13432000  0.10572000  1.0
  H  H166  1  0.76406000  0.08690000  0.01304000  1.0
  H  H167  1  0.75634000  0.02498000  0.03918000  1.0
  H  H168  1  0.95112000  0.24973000  0.79588000  1.0
  H  H169  1  0.89689000  0.22144000  0.78695000  1.0
  H  H170  1  0.93738000  0.24564000  0.73738000  1.0
  H  H171  1  0.90779000  0.19134000  0.73953000  1.0
  H  H172  1  0.04860000  0.29387000  0.66434000  1.0
  H  H173  1  0.98682000  0.23319000  0.68478000  1.0
  H  H174  1  0.02718000  0.27070000  0.78168000  1.0
  H  H175  1  0.08902000  0.33108000  0.76186000  1.0
  H  H176  1  0.84654000  0.12929000  0.80556000  1.0
  H  H177  1  0.80227000  0.11045000  0.85318000  1.0
  H  H178  1  0.90224000  0.20591000  0.90715000  1.0
  H  H179  1  0.94646000  0.22362000  0.85949000  1.0
  H  H180  1  0.23863000  0.31265000  0.46600000  1.0
  H  H181  1  0.20141000  0.31196000  0.43782000  1.0
  H  H182  1  0.25959000  0.31074000  0.41165000  1.0
  H  H183  1  0.21077000  0.26557000  0.40232000  1.0
  H  H184  1  0.28230000  0.19519000  0.35541000  1.0
  H  H185  1  0.23124000  0.20497000  0.38477000  1.0
  H  H186  1  0.32731000  0.30297000  0.43892000  1.0
  H  H187  1  0.37868000  0.29360000  0.41000000  1.0
  H  H188  1  0.11929000  0.27014000  0.46214000  1.0
  H  H189  1  0.09142000  0.28878000  0.50835000  1.0
  H  H190  1  0.18376000  0.28783000  0.56915000  1.0
  H  H191  1  0.21091000  0.26876000  0.52273000  1.0
  H  H192  1  0.24041000  0.96446000  0.13710000  1.0
  H  H193  1  0.19633000  0.95727000  0.11407000  1.0
  H  H194  1  0.21638000  0.01101000  0.15342000  1.0
  H  H195  1  0.22253000  0.03114000  0.11323000  1.0
  H  H196  1  0.28315000  0.15895000  0.18297000  1.0
  H  H197  1  0.27196000  0.11473000  0.13610000  1.0
  H  H198  1  0.29506000  0.03424000  0.19429000  1.0
  H  H199  1  0.30717000  0.07840000  0.24109000  1.0
  H  H200  1  0.19719000  0.94972000  0.04414000  1.0
  H  H201  1  0.17445000  0.88217000  0.02012000  1.0
  H  H202  1  0.26055000  0.86842000  0.07974000  1.0
  H  H203  1  0.28332000  0.93633000  0.10318000  1.0
  H  H204  1  0.02766000  0.74775000  0.78518000  1.0
  H  H205  1  0.07832000  0.78474000  0.77034000  1.0
  H  H206  1  0.02671000  0.75187000  0.72676000  1.0
  H  H207  1  0.05014000  0.80630000  0.72800000  1.0
  H  H208  1  0.90125000  0.70584000  0.66452000  1.0
  H  H209  1  0.96264000  0.76671000  0.68484000  1.0
  H  H210  1  0.94632000  0.70892000  0.77679000  1.0
  H  H211  1  0.88530000  0.64760000  0.75687000  1.0
  H  H212  1  0.12228000  0.86663000  0.80170000  1.0
  H  H213  1  0.16231000  0.87997000  0.85130000  1.0
  H  H214  1  0.05882000  0.77712000  0.89641000  1.0
  H  H215  1  0.01891000  0.76487000  0.84687000  1.0
  H  H216  1  0.79090000  0.76171000  0.43449000  1.0
  H  H217  1  0.77654000  0.77231000  0.47322000  1.0
  H  H218  1  0.74272000  0.78711000  0.42948000  1.0
  H  H219  1  0.70676000  0.74690000  0.45611000  1.0
  H  H220  1  0.57869000  0.68826000  0.41222000  1.0
  H  H221  1  0.63748000  0.68217000  0.43019000  1.0
  H  H222  1  0.71588000  0.77712000  0.36437000  1.0
  H  H223  1  0.65734000  0.78342000  0.34589000  1.0
  H  H224  1  0.72527000  0.70122000  0.51982000  1.0
  H  H225  1  0.75862000  0.69193000  0.56715000  1.0
  H  H226  1  0.85737000  0.70369000  0.50711000  1.0
  H  H227  1  0.82317000  0.71226000  0.45993000  1.0
  C  C228  1  0.80120000  0.31950000  0.01624000  1.0
  C  C229  1  0.76393000  0.15252000  0.04209000  1.0
  C  C230  1  0.71029000  0.24012000  0.07919000  1.0
  C  C231  1  0.68588000  0.09471000  0.95184000  1.0
  C  C232  1  0.76161000  0.20979000  0.95542000  1.0
  C  C233  1  0.82197000  0.14602000  0.91234000  1.0
  C  C234  1  0.28318000  0.44642000  0.69336000  1.0
  C  C235  1  0.11177000  0.35378000  0.69998000  1.0
  C  C236  1  0.20229000  0.48654000  0.74219000  1.0
  C  C237  1  0.07654000  0.39536000  0.60179000  1.0
  C  C238  1  0.18417000  0.42013000  0.62155000  1.0
  C  C239  1  0.12023000  0.30319000  0.56985000  1.0
  C  C240  1  0.44368000  0.14943000  0.36225000  1.0
  C  C241  1  0.36428000  0.23195000  0.36863000  1.0
  C  C242  1  0.50812000  0.28256000  0.39937000  1.0
  C  C243  1  0.35687000  0.28522000  0.28695000  1.0
  C  C244  1  0.42081000  0.23180000  0.28847000  1.0
  C  C245  1  0.30446000  0.14910000  0.24374000  1.0
  C  C246  1  0.11304000  0.66347000  0.01753000  1.0
  C  C247  1  0.19937000  0.82781000  0.03594000  1.0
  C  C248  1  0.23994000  0.72640000  0.06403000  1.0
  C  C249  1  0.26844000  0.88843000  0.95680000  1.0
  C  C250  1  0.19815000  0.77366000  0.95188000  1.0
  C  C251  1  0.13755000  0.83742000  0.90749000  1.0
  C  C252  1  0.68798000  0.53173000  0.68321000  1.0
  C  C253  1  0.84947000  0.63617000  0.69817000  1.0
  C  C254  1  0.76683000  0.49912000  0.74715000  1.0
  C  C255  1  0.89841000  0.61857000  0.60328000  1.0
  C  C256  1  0.78637000  0.56478000  0.61449000  1.0
  C  C257  1  0.82890000  0.68817000  0.56869000  1.0
  C  C258  1  0.47198000  0.79818000  0.36682000  1.0
  C  C259  1  0.57931000  0.74326000  0.36947000  1.0
  C  C260  1  0.44036000  0.67632000  0.41405000  1.0
  C  C261  1  0.57629000  0.68186000  0.28650000  1.0
  C  C262  1  0.50888000  0.72977000  0.29197000  1.0
  C  C263  1  0.62570000  0.81491000  0.23955000  1.0
  C  C264  1  0.76728000  0.47337000  0.77366000  1.0
  C  C265  1  0.77841000  0.44342000  0.76829000  1.0
  C  C266  1  0.77812000  0.41886000  0.79362000  1.0
  C  C267  1  0.76702000  0.42414000  0.82460000  1.0
  C  C268  1  0.75680000  0.45459000  0.83015000  1.0
  C  C269  1  0.75639000  0.47866000  0.80482000  1.0
  C  C270  1  0.75233000  0.29597000  0.89415000  1.0
  C  C271  1  0.72235000  0.25441000  0.89306000  1.0
  C  C272  1  0.72400000  0.22660000  0.91435000  1.0
  C  C273  1  0.75574000  0.23992000  0.93698000  1.0
  C  C274  1  0.78546000  0.28175000  0.93821000  1.0
  C  C275  1  0.78369000  0.30957000  0.91699000  1.0
  C  C276  1  0.72972000  0.33987000  0.88110000  1.0
  C  C277  1  0.72856000  0.36699000  0.85440000  1.0
  C  C278  1  0.41512000  0.64524000  0.43837000  1.0
  C  C279  1  0.40068000  0.60337000  0.43324000  1.0
  C  C280  1  0.37939000  0.57480000  0.45756000  1.0
  C  C281  1  0.37141000  0.58757000  0.48701000  1.0
  C  C282  1  0.38535000  0.62921000  0.49199000  1.0
  C  C283  1  0.40700000  0.65780000  0.46792000  1.0
  C  C284  1  0.27405000  0.53144000  0.57806000  1.0
  C  C285  1  0.28431000  0.50215000  0.58791000  1.0
  C  C286  1  0.25590000  0.46720000  0.60466000  1.0
  C  C287  1  0.21661000  0.46083000  0.61123000  1.0
  C  C288  1  0.20693000  0.49096000  0.60256000  1.0
  C  C289  1  0.23587000  0.52656000  0.58682000  1.0
  C  C290  1  0.29162000  0.56135000  0.52815000  1.0
  C  C291  1  0.31012000  0.53952000  0.50926000  1.0
  C  C292  1  0.68400000  0.24274000  0.10431000  1.0
  C  C293  1  0.64254000  0.22958000  0.09835000  1.0
  C  C294  1  0.61795000  0.23197000  0.12250000  1.0
  C  C295  1  0.63447000  0.24758000  0.15285000  1.0
  C  C296  1  0.67571000  0.26041000  0.15891000  1.0
  C  C297  1  0.70038000  0.25835000  0.13477000  1.0
  C  C298  1  0.52039000  0.25647000  0.22584000  1.0
  C  C299  1  0.49905000  0.27776000  0.22207000  1.0
  C  C300  1  0.46885000  0.27252000  0.24419000  1.0
  C  C301  1  0.45939000  0.24567000  0.27037000  1.0
  C  C302  1  0.48269000  0.22637000  0.27504000  1.0
  C  C303  1  0.51279000  0.23156000  0.25285000  1.0
  C  C304  1  0.58534000  0.28670000  0.20573000  1.0
  C  C305  1  0.61137000  0.28586000  0.17791000  1.0
  C  C306  1  0.20161000  0.51554000  0.76569000  1.0
  C  C307  1  0.19254000  0.54596000  0.75635000  1.0
  C  C308  1  0.19252000  0.57337000  0.77910000  1.0
  C  C309  1  0.20133000  0.57052000  0.81139000  1.0
  C  C310  1  0.20964000  0.53977000  0.82080000  1.0
  C  C311  1  0.21026000  0.51282000  0.79812000  1.0
  C  C312  1  0.21321000  0.69470000  0.88631000  1.0
  C  C313  1  0.24013000  0.73706000  0.88542000  1.0
  C  C314  1  0.23723000  0.76259000  0.90835000  1.0
  C  C315  1  0.20719000  0.74617000  0.93252000  1.0
  C  C316  1  0.18118000  0.70348000  0.93390000  1.0
  C  C317  1  0.18421000  0.67795000  0.91100000  1.0
  C  C318  1  0.23888000  0.65543000  0.86730000  1.0
  C  C319  1  0.23909000  0.63031000  0.83859000  1.0
  C  C320  1  0.54185000  0.31400000  0.41898000  1.0
  C  C321  1  0.54814000  0.30451000  0.45035000  1.0
  C  C322  1  0.57967000  0.33399000  0.46932000  1.0
  C  C323  1  0.60516000  0.37353000  0.45740000  1.0
  C  C324  1  0.59947000  0.38304000  0.42596000  1.0
  C  C325  1  0.56790000  0.35352000  0.40688000  1.0
  C  C326  1  0.69466000  0.46522000  0.55970000  1.0
  C  C327  1  0.68329000  0.48108000  0.58564000  1.0
  C  C328  1  0.71331000  0.51246000  0.60447000  1.0
  C  C329  1  0.75498000  0.52747000  0.59831000  1.0
  C  C330  1  0.76621000  0.51061000  0.57292000  1.0
  C  C331  1  0.73624000  0.47941000  0.55393000  1.0
  C  C332  1  0.65653000  0.45593000  0.51505000  1.0
  C  C333  1  0.62231000  0.42441000  0.49375000  1.0
  C  C334  1  0.26857000  0.72066000  0.08471000  1.0
  C  C335  1  0.25481000  0.69988000  0.11413000  1.0
  C  C336  1  0.28153000  0.69457000  0.13417000  1.0
  C  C337  1  0.32256000  0.71038000  0.12540000  1.0
  C  C338  1  0.33636000  0.73061000  0.09587000  1.0
  C  C339  1  0.30958000  0.73584000  0.07567000  1.0
  C  C340  1  0.40639000  0.70358000  0.23225000  1.0
  C  C341  1  0.41353000  0.72679000  0.26025000  1.0
  C  C342  1  0.44511000  0.73291000  0.28119000  1.0
  C  C343  1  0.46958000  0.71527000  0.27479000  1.0
  C  C344  1  0.46018000  0.68947000  0.24789000  1.0
  C  C345  1  0.42873000  0.68358000  0.22686000  1.0
  C  C346  1  0.39843000  0.73382000  0.18783000  1.0
  C  C347  1  0.36733000  0.73781000  0.16685000  1.0
  C  C348  1  0.64175000  0.07858000  0.94687000  1.0
  C  C349  1  0.61290000  0.04404000  0.96404000  1.0
  C  C350  1  0.57105000  0.02984000  0.96055000  1.0
  C  C351  1  0.55753000  0.04977000  0.93974000  1.0
  C  C352  1  0.58615000  0.08416000  0.92251000  1.0
  C  C353  1  0.62802000  0.09830000  0.92585000  1.0
  C  C354  1  0.39851000  0.94531000  0.94575000  1.0
  C  C355  1  0.37270000  0.90718000  0.93165000  1.0
  C  C356  1  0.33027000  0.88870000  0.93516000  1.0
  C  C357  1  0.31318000  0.90782000  0.95333000  1.0
  C  C358  1  0.33923000  0.94569000  0.96801000  1.0
  C  C359  1  0.38167000  0.96430000  0.96421000  1.0
  C  C360  1  0.45278000  0.98707000  0.91448000  1.0
  C  C361  1  0.49926000  0.00880000  0.91202000  1.0
  C  C362  1  0.91847000  0.59475000  0.59553000  1.0
  C  C363  1  0.95567000  0.60399000  0.61018000  1.0
  C  C364  1  0.97408000  0.58063000  0.60322000  1.0
  C  C365  1  0.95573000  0.54812000  0.58138000  1.0
  C  C366  1  0.91857000  0.53869000  0.56684000  1.0
  C  C367  1  0.90015000  0.56203000  0.57371000  1.0
  C  C368  1  0.05343000  0.49275000  0.57965000  1.0
  C  C369  1  0.08791000  0.49294000  0.56703000  1.0
  C  C370  1  0.09502000  0.46076000  0.57382000  1.0
  C  C371  1  0.06786000  0.42820000  0.59356000  1.0
  C  C372  1  0.03325000  0.42808000  0.60612000  1.0
  C  C373  1  0.02622000  0.46034000  0.59932000  1.0
  C  C374  1  0.02365000  0.51789000  0.54600000  1.0
  C  C375  1  0.99954000  0.54018000  0.54891000  1.0
  C  C376  1  0.55919000  0.63736000  0.28297000  1.0
  C  C377  1  0.52075000  0.61299000  0.26856000  1.0
  C  C378  1  0.50453000  0.57070000  0.26548000  1.0
  C  C379  1  0.52644000  0.55227000  0.27685000  1.0
  C  C380  1  0.56522000  0.57664000  0.29056000  1.0
  C  C381  1  0.58130000  0.61883000  0.29395000  1.0
  C  C382  1  0.40947000  0.41509000  0.27667000  1.0
  C  C383  1  0.37042000  0.39146000  0.29012000  1.0
  C  C384  1  0.35338000  0.34915000  0.29360000  1.0
  C  C385  1  0.37479000  0.32976000  0.28292000  1.0
  C  C386  1  0.41347000  0.35338000  0.26865000  1.0
  C  C387  1  0.43067000  0.39580000  0.26554000  1.0
  C  C388  1  0.44576000  0.47740000  0.30150000  1.0
  C  C389  1  0.49113000  0.48967000  0.30141000  1.0
  C  C390  1  0.44296000  0.11020000  0.36051000  1.0
  C  C391  1  0.40550000  0.07350000  0.35740000  1.0
  C  C392  1  0.40474000  0.03618000  0.35513000  1.0
  C  C393  1  0.44125000  0.03503000  0.35724000  1.0
  C  C394  1  0.47866000  0.07158000  0.36034000  1.0
  C  C395  1  0.47960000  0.10907000  0.36163000  1.0
  C  C396  1  0.44348000  0.89426000  0.35968000  1.0
  C  C397  1  0.41234000  0.85406000  0.36574000  1.0
  C  C398  1  0.42149000  0.82249000  0.36768000  1.0
  C  C399  1  0.46207000  0.83107000  0.36419000  1.0
  C  C400  1  0.49319000  0.87138000  0.35796000  1.0
  C  C401  1  0.48379000  0.90266000  0.35508000  1.0
  C  C402  1  0.44327000  0.94643000  0.38652000  1.0
  C  C403  1  0.42999000  0.97849000  0.38511000  1.0
  C  C404  1  0.82152000  0.36293000  0.00695000  1.0
  C  C405  1  0.80301000  0.37637000  0.98446000  1.0
  C  C406  1  0.82281000  0.41728000  0.97469000  1.0
  C  C407  1  0.86116000  0.44520000  0.98741000  1.0
  C  C408  1  0.87926000  0.43219000  0.01046000  1.0
  C  C409  1  0.85973000  0.39117000  0.01999000  1.0
  C  C410  1  0.00107000  0.55466000  0.99389000  1.0
  C  C411  1  0.00064000  0.58394000  0.01432000  1.0
  C  C412  1  0.03721000  0.61929000  0.02234000  1.0
  C  C413  1  0.07470000  0.62536000  0.01042000  1.0
  C  C414  1  0.07508000  0.59532000  0.99070000  1.0
  C  C415  1  0.03843000  0.56013000  0.98253000  1.0
  C  C416  1  0.94889000  0.52781000  0.95803000  1.0
  C  C417  1  0.90670000  0.49121000  0.95138000  1.0
  C  C418  1  0.64700000  0.52316000  0.67342000  1.0
  C  C419  1  0.63892000  0.55542000  0.66927000  1.0
  C  C420  1  0.59993000  0.54726000  0.66016000  1.0
  C  C421  1  0.56840000  0.50675000  0.65581000  1.0
  C  C422  1  0.57664000  0.47458000  0.65892000  1.0
  C  C423  1  0.61577000  0.48271000  0.66764000  1.0
  C  C424  1  0.40871000  0.47764000  0.69709000  1.0
  C  C425  1  0.37776000  0.43723000  0.70270000  1.0
  C  C426  1  0.33668000  0.42669000  0.70058000  1.0
  C  C427  1  0.32620000  0.45655000  0.69283000  1.0
  C  C428  1  0.35737000  0.49688000  0.68658000  1.0
  C  C429  1  0.39842000  0.50742000  0.68901000  1.0
  C  C430  1  0.46601000  0.48633000  0.67233000  1.0
  C  C431  1  0.50947000  0.49550000  0.67853000  1.0
  C  C432  1  0.63514000  0.84122000  0.21088000  1.0
  C  C433  1  0.65094000  0.83325000  0.18297000  1.0
  C  C434  1  0.65972000  0.85826000  0.15588000  1.0
  C  C435  1  0.65339000  0.89187000  0.15649000  1.0
  C  C436  1  0.63744000  0.89977000  0.18418000  1.0
  C  C437  1  0.62844000  0.87471000  0.21120000  1.0
  C  C438  1  0.75150000  0.04409000  0.08698000  1.0
  C  C439  1  0.75239000  0.07551000  0.10547000  1.0
  C  C440  1  0.75681000  0.11080000  0.09076000  1.0
  C  C441  1  0.76083000  0.11550000  0.05721000  1.0
  C  C442  1  0.76074000  0.08420000  0.03880000  1.0
  C  C443  1  0.75623000  0.04879000  0.05361000  1.0
  C  C444  1  0.70643000  0.97933000  0.10396000  1.0
  C  C445  1  0.70141000  0.94773000  0.12918000  1.0
  C  C446  1  0.07385000  0.31729000  0.71142000  1.0
  C  C447  1  0.04430000  0.28938000  0.68996000  1.0
  C  C448  1  0.00899000  0.25486000  0.70154000  1.0
  C  C449  1  0.00243000  0.24812000  0.73467000  1.0
  C  C450  1  0.03161000  0.27593000  0.75610000  1.0
  C  C451  1  0.06696000  0.31021000  0.74462000  1.0
  C  C452  1  0.89936000  0.17810000  0.82907000  1.0
  C  C453  1  0.85867000  0.14607000  0.82769000  1.0
  C  C454  1  0.83362000  0.13532000  0.85490000  1.0
  C  C455  1  0.84882000  0.15678000  0.88386000  1.0
  C  C456  1  0.88968000  0.18894000  0.88515000  1.0
  C  C457  1  0.91491000  0.19916000  0.85804000  1.0
  C  C458  1  0.92613000  0.22067000  0.78571000  1.0
  C  C459  1  0.93487000  0.21837000  0.75012000  1.0
  C  C460  1  0.33452000  0.24366000  0.38037000  1.0
  C  C461  1  0.29269000  0.21975000  0.37277000  1.0
  C  C462  1  0.26349000  0.22514000  0.38954000  1.0
  C  C463  1  0.27576000  0.25480000  0.41375000  1.0
  C  C464  1  0.31755000  0.28028000  0.42005000  1.0
  C  C465  1  0.34672000  0.27480000  0.40350000  1.0
  C  C466  1  0.16754000  0.26900000  0.48910000  1.0
  C  C467  1  0.13339000  0.27408000  0.48547000  1.0
  C  C468  1  0.11749000  0.28449000  0.51188000  1.0
  C  C469  1  0.13550000  0.28986000  0.54235000  1.0
  C  C470  1  0.16930000  0.28399000  0.54598000  1.0
  C  C471  1  0.18496000  0.27331000  0.51958000  1.0
  C  C472  1  0.21407000  0.29348000  0.44845000  1.0
  C  C473  1  0.23383000  0.28172000  0.42154000  1.0
  C  C474  1  0.29591000  0.12203000  0.21568000  1.0
  C  C475  1  0.28558000  0.13170000  0.18582000  1.0
  C  C476  1  0.27921000  0.10662000  0.15910000  1.0
  C  C477  1  0.28220000  0.07113000  0.16210000  1.0
  C  C478  1  0.29222000  0.06130000  0.19185000  1.0
  C  C479  1  0.29916000  0.08658000  0.21843000  1.0
  C  C480  1  0.24120000  0.94732000  0.07577000  1.0
  C  C481  1  0.21121000  0.93210000  0.05174000  1.0
  C  C482  1  0.19854000  0.89375000  0.03796000  1.0
  C  C483  1  0.21574000  0.87002000  0.04807000  1.0
  C  C484  1  0.24667000  0.88594000  0.07155000  1.0
  C  C485  1  0.25966000  0.92455000  0.08500000  1.0
  C  C486  1  0.22979000  0.97802000  0.11829000  1.0
  C  C487  1  0.23518000  0.01844000  0.13104000  1.0
  C  C488  1  0.88844000  0.67175000  0.70899000  1.0
  C  C489  1  0.91108000  0.70563000  0.68883000  1.0
  C  C490  1  0.94606000  0.74042000  0.70034000  1.0
  C  C491  1  0.95891000  0.74179000  0.73209000  1.0
  C  C492  1  0.93691000  0.70792000  0.75212000  1.0
  C  C493  1  0.90207000  0.67307000  0.74065000  1.0
  C  C494  1  0.06811000  0.81447000  0.82070000  1.0
  C  C495  1  0.10854000  0.84698000  0.82231000  1.0
  C  C496  1  0.13116000  0.85458000  0.85062000  1.0
  C  C497  1  0.11366000  0.82948000  0.87765000  1.0
  C  C498  1  0.07312000  0.79679000  0.87590000  1.0
  C  C499  1  0.05035000  0.78968000  0.84773000  1.0
  C  C500  1  0.04637000  0.77851000  0.77402000  1.0
  C  C501  1  0.02845000  0.77786000  0.74098000  1.0
  C  C502  1  0.61349000  0.73638000  0.37768000  1.0
  C  C503  1  0.60835000  0.70759000  0.40133000  1.0
  C  C504  1  0.64174000  0.70409000  0.41167000  1.0
  C  C505  1  0.68086000  0.72991000  0.39907000  1.0
  C  C506  1  0.68587000  0.75751000  0.37459000  1.0
  C  C507  1  0.65242000  0.76081000  0.36398000  1.0
  C  C508  1  0.77214000  0.70782000  0.48674000  1.0
  C  C509  1  0.75435000  0.70229000  0.51714000  1.0
  C  C510  1  0.77342000  0.69700000  0.54401000  1.0
  C  C511  1  0.81070000  0.69733000  0.54081000  1.0
  C  C512  1  0.82887000  0.70369000  0.51032000  1.0
  C  C513  1  0.80948000  0.70852000  0.48341000  1.0
  C  C514  1  0.76545000  0.75117000  0.45211000  1.0
  C  C515  1  0.73043000  0.75471000  0.43713000  1.0
  O  O516  1  0.71488000  0.12875000  0.93905000  1.0
  O  O517  1  0.70077000  0.07798000  0.97105000  1.0
  O  O518  1  0.78321000  0.22047000  0.98213000  1.0
  O  O519  1  0.75247000  0.17443000  0.94153000  1.0
  O  O520  1  0.83088000  0.16989000  0.93780000  1.0
  O  O521  1  0.78601000  0.11212000  0.91446000  1.0
  O  O522  1  0.81788000  0.30312000  0.03388000  1.0
  O  O523  1  0.76467000  0.29226000  0.00664000  1.0
  O  O524  1  0.76630000  0.15880000  0.01116000  1.0
  O  O525  1  0.76332000  0.18134000  0.05940000  1.0
  O  O526  1  0.69805000  0.22309000  0.05126000  1.0
  O  O527  1  0.74928000  0.25452000  0.08224000  1.0
  O  O528  1  0.11078000  0.39635000  0.59414000  1.0
  O  O529  1  0.05240000  0.36298000  0.61889000  1.0
  O  O530  1  0.18767000  0.40230000  0.64748000  1.0
  O  O531  1  0.15134000  0.39948000  0.60314000  1.0
  O  O532  1  0.13885000  0.31367000  0.59797000  1.0
  O  O533  1  0.08815000  0.30842000  0.56814000  1.0
  O  O534  1  0.25314000  0.41120000  0.70408000  1.0
  O  O535  1  0.27138000  0.47284000  0.68553000  1.0
  O  O536  1  0.11998000  0.36411000  0.66979000  1.0
  O  O537  1  0.14077000  0.37734000  0.72030000  1.0
  O  O538  1  0.18788000  0.48123000  0.71267000  1.0
  O  O539  1  0.21723000  0.46258000  0.74905000  1.0
  O  O540  1  0.37218000  0.26374000  0.27453000  1.0
  O  O541  1  0.32417000  0.26242000  0.30407000  1.0
  O  O542  1  0.41162000  0.20722000  0.31329000  1.0
  O  O543  1  0.39058000  0.23488000  0.27486000  1.0
  O  O544  1  0.32176000  0.14556000  0.27018000  1.0
  O  O545  1  0.29651000  0.17956000  0.24480000  1.0
  O  O546  1  0.47535000  0.18456000  0.35305000  1.0
  O  O547  1  0.41229000  0.15263000  0.37259000  1.0
  O  O548  1  0.35689000  0.20722000  0.34436000  1.0
  O  O549  1  0.39863000  0.24329000  0.38419000  1.0
  O  O550  1  0.50012000  0.28824000  0.36953000  1.0
  O  O551  1  0.48253000  0.24563000  0.41033000  1.0
  O  O552  1  0.24207000  0.85508000  0.94158000  1.0
  O  O553  1  0.25017000  0.90232000  0.97536000  1.0
  O  O554  1  0.17361000  0.75997000  0.97688000  1.0
  O  O555  1  0.20657000  0.80962000  0.93956000  1.0
  O  O556  1  0.12614000  0.81098000  0.93144000  1.0
  O  O557  1  0.17259000  0.87150000  0.91278000  1.0
  O  O558  1  0.11420000  0.69548000  0.03148000  1.0
  O  O559  1  0.14942000  0.66976000  0.00892000  1.0
  O  O560  1  0.17903000  0.81538000  0.00905000  1.0
  O  O561  1  0.20495000  0.80072000  0.05160000  1.0
  O  O562  1  0.24907000  0.74375000  0.03541000  1.0
  O  O563  1  0.20215000  0.71472000  0.07274000  1.0
  O  O564  1  0.86226000  0.60965000  0.59251000  1.0
  O  O565  1  0.91384000  0.65040000  0.62229000  1.0
  O  O566  1  0.78847000  0.57004000  0.64563000  1.0
  O  O567  1  0.81456000  0.59558000  0.59705000  1.0
  O  O568  1  0.80897000  0.67342000  0.59593000  1.0
  O  O569  1  0.86514000  0.69063000  0.56803000  1.0
  O  O570  1  0.69952000  0.50391000  0.68230000  1.0
  O  O571  1  0.71735000  0.56845000  0.69204000  1.0
  O  O572  1  0.83540000  0.63236000  0.66891000  1.0
  O  O573  1  0.82653000  0.60604000  0.71804000  1.0
  O  O574  1  0.78435000  0.50263000  0.71896000  1.0
  O  O575  1  0.74891000  0.52137000  0.74956000  1.0
  O  O576  1  0.55999000  0.70238000  0.27401000  1.0
  O  O577  1  0.60941000  0.70566000  0.30284000  1.0
  O  O578  1  0.51787000  0.75327000  0.31753000  1.0
  O  O579  1  0.53973000  0.73015000  0.27604000  1.0
  O  O580  1  0.60882000  0.81977000  0.26574000  1.0
  O  O581  1  0.63371000  0.78461000  0.24177000  1.0
  O  O582  1  0.50856000  0.80474000  0.37513000  1.0
  O  O583  1  0.44537000  0.75942000  0.36062000  1.0
  O  O584  1  0.57868000  0.76171000  0.34318000  1.0
  O  O585  1  0.54747000  0.73077000  0.38844000  1.0
  O  O586  1  0.44582000  0.66823000  0.38424000  1.0
  O  O587  1  0.46122000  0.71560000  0.42064000  1.0
  O  O588  1  0.75337000  0.32248000  0.87081000  1.0
  O  O589  1  0.76827000  0.40095000  0.84981000  1.0
  O  O590  1  0.30217000  0.56577000  0.56121000  1.0
  O  O591  1  0.35338000  0.56000000  0.51200000  1.0
  O  O592  1  0.54434000  0.25554000  0.20109000  1.0
  O  O593  1  0.60965000  0.24751000  0.17731000  1.0
  O  O594  1  0.21196000  0.67042000  0.86099000  1.0
  O  O595  1  0.19942000  0.59618000  0.83419000  1.0
  O  O596  1  0.66508000  0.43579000  0.53998000  1.0
  O  O597  1  0.63686000  0.40228000  0.47606000  1.0
  O  O598  1  0.37804000  0.70111000  0.20992000  1.0
  O  O599  1  0.34874000  0.70457000  0.14515000  1.0
  O  O600  1  0.44044000  0.96319000  0.94275000  1.0
  O  O601  1  0.51632000  0.03688000  0.93766000  1.0
  O  O602  1  0.04730000  0.52534000  0.57416000  1.0
  O  O603  1  0.97306000  0.52408000  0.57559000  1.0
  O  O604  1  0.42596000  0.45685000  0.27280000  1.0
  O  O605  1  0.51098000  0.51066000  0.27287000  1.0
  O  O606  1  0.43411000  0.92512000  0.35702000  1.0
  O  O607  1  0.44077000  0.99833000  0.35494000  1.0
  O  O608  1  0.96493000  0.51982000  0.98599000  1.0
  O  O609  1  0.88068000  0.48561000  0.97779000  1.0
  O  O610  1  0.44905000  0.48862000  0.70189000  1.0
  O  O611  1  0.52920000  0.49852000  0.64902000  1.0
  O  O612  1  0.74826000  0.00983000  0.10189000  1.0
  O  O613  1  0.66020000  0.91551000  0.12934000  1.0
  O  O614  1  0.92440000  0.18713000  0.80246000  1.0
  O  O615  1  0.96907000  0.21267000  0.74612000  1.0
  O  O616  1  0.18260000  0.25769000  0.46315000  1.0
  O  O617  1  0.24712000  0.25549000  0.43406000  1.0
  O  O618  1  0.25287000  0.98484000  0.08984000  1.0
  O  O619  1  0.27733000  0.04691000  0.13566000  1.0
  O  O620  1  0.04519000  0.80875000  0.79333000  1.0
  O  O621  1  0.99088000  0.77757000  0.74436000  1.0
  O  O622  1  0.75144000  0.70972000  0.46005000  1.0
  O  O623  1  0.71421000  0.72790000  0.41057000  1.0
