# generated using pymatgen
data_CoH70(C11N3)6
_symmetry_space_group_name_H-M   'P 1'
_cell_length_a   15.47335000
_cell_length_b   20.61265000
_cell_length_c   31.28760000
_cell_angle_alpha   89.88200000
_cell_angle_beta   87.33100000
_cell_angle_gamma   82.15400000
_symmetry_Int_Tables_number   1
_chemical_formula_structural   CoH70(C11N3)6
_chemical_formula_sum   'Co2 H140 C132 N36'
_cell_volume   9874.84282411
_cell_formula_units_Z   2
loop_
 _symmetry_equiv_pos_site_id
 _symmetry_equiv_pos_as_xyz
  1  'x, y, z'
loop_
 _atom_site_type_symbol
 _atom_site_label
 _atom_site_symmetry_multiplicity
 _atom_site_fract_x
 _atom_site_fract_y
 _atom_site_fract_z
 _atom_site_occupancy
  C  C0  1  0.14788000  0.03982000  0.73679000  1.0
  C  C1  1  0.13068000  0.98246000  0.70764000  1.0
  C  C2  1  0.06324000  0.00548000  0.67359000  1.0
  C  C3  1  0.16776000  0.05598000  0.23189000  1.0
  C  C4  1  0.10842000  0.07742000  0.27236000  1.0
  C  C5  1  0.01236000  0.06692000  0.26614000  1.0
  C  C6  1  0.52834000  0.55198000  0.22168000  1.0
  C  C7  1  0.49224000  0.49620000  0.19775000  1.0
  C  C8  1  0.43688000  0.52308000  0.15983000  1.0
  C  C9  1  0.62488000  0.60572000  0.73659000  1.0
  C  C10  1  0.62786000  0.56210000  0.77706000  1.0
  C  C11  1  0.54040000  0.57670000  0.80375000  1.0
  C  C12  1  0.80583000  0.32314000  0.00921000  1.0
  C  C13  1  0.89236000  0.32986000  0.99662000  1.0
  C  C14  1  0.04504000  0.34438000  0.07093000  1.0
  C  C15  1  0.09006000  0.32740000  0.10824000  1.0
  C  C16  1  0.95528000  0.27780000  0.97599000  1.0
  C  C17  1  0.93708000  0.21464000  0.96655000  1.0
  C  C18  1  0.09794000  0.25306000  0.94332000  1.0
  C  C19  1  0.08204000  0.18978000  0.93286000  1.0
  C  C20  1  0.18168000  0.32052000  0.10581000  1.0
  C  C21  1  0.00084000  0.17084000  0.94485000  1.0
  C  C22  1  0.21910000  0.35880000  0.98857000  1.0
  C  C23  1  0.22654000  0.32840000  0.06703000  1.0
  C  C24  1  0.17920000  0.34494000  0.03060000  1.0
  C  C25  1  0.07676000  0.49846000  0.03136000  1.0
  C  C26  1  0.08306000  0.56520000  0.03615000  1.0
  C  C27  1  0.05568000  0.60828000  0.00327000  1.0
  C  C28  1  0.02376000  0.58454000  0.96629000  1.0
  C  C29  1  0.02040000  0.51712000  0.96235000  1.0
  C  C30  1  0.99114000  0.48550000  0.92445000  1.0
  C  C31  1  0.96308000  0.51886000  0.88743000  1.0
  C  C32  1  0.94520000  0.41488000  0.85517000  1.0
  C  C33  1  0.97334000  0.38350000  0.89293000  1.0
  C  C34  1  0.94108000  0.48326000  0.85272000  1.0
  C  C35  1  0.18992000  0.39560000  0.91798000  1.0
  C  C36  1  0.27942000  0.38874000  0.90688000  1.0
  C  C37  1  0.33908000  0.36580000  0.93758000  1.0
  C  C38  1  0.30930000  0.35082000  0.97862000  1.0
  C  C39  1  0.87030000  0.44134000  0.01912000  1.0
  C  C40  1  0.78288000  0.43704000  0.03131000  1.0
  C  C41  1  0.75126000  0.37710000  0.02642000  1.0
  C  C42  1  0.32034000  0.91776000  0.48433000  1.0
  C  C43  1  0.40992000  0.90220000  0.47397000  1.0
  C  C44  1  0.54842000  0.83650000  0.54865000  1.0
  C  C45  1  0.57150000  0.78854000  0.57947000  1.0
  C  C46  1  0.44868000  0.84642000  0.44679000  1.0
  C  C47  1  0.40154000  0.80030000  0.42913000  1.0
  C  C48  1  0.58168000  0.79034000  0.41625000  1.0
  C  C49  1  0.53726000  0.74272000  0.39849000  1.0
  C  C50  1  0.65556000  0.75290000  0.57643000  1.0
  C  C51  1  0.44636000  0.74832000  0.40512000  1.0
  C  C52  1  0.74390000  0.83040000  0.47642000  1.0
  C  C53  1  0.71490000  0.76591000  0.54375000  1.0
  C  C54  1  0.68900000  0.81412000  0.51354000  1.0
  C  C55  1  0.66658000  0.97466000  0.53854000  1.0
  C  C56  1  0.70022000  0.02882000  0.55504000  1.0
  C  C57  1  0.69918000  0.08530000  0.52999000  1.0
  C  C58  1  0.66724000  0.08674000  0.48908000  1.0
  C  C59  1  0.63512000  0.03134000  0.47356000  1.0
  C  C60  1  0.59888000  0.02690000  0.43114000  1.0
  C  C61  1  0.59428000  0.07682000  0.40049000  1.0
  C  C62  1  0.51974000  0.01024000  0.35463000  1.0
  C  C63  1  0.52834000  0.96056000  0.38551000  1.0
  C  C64  1  0.55538000  0.06790000  0.36210000  1.0
  C  C65  1  0.74538000  0.89140000  0.41183000  1.0
  C  C66  1  0.83070000  0.86188000  0.40105000  1.0
  C  C67  1  0.87318000  0.81718000  0.42954000  1.0
  C  C68  1  0.83000000  0.80112000  0.46733000  1.0
  C  C69  1  0.44114000  0.99038000  0.51707000  1.0
  C  C70  1  0.35212000  0.00706000  0.52862000  1.0
  C  C71  1  0.29182000  0.97050000  0.51156000  1.0
  C  C72  1  0.06854000  0.06642000  0.76626000  1.0
  C  C73  1  0.15032000  0.14346000  0.90830000  1.0
  C  C74  1  0.13110000  0.19254000  0.83506000  1.0
  C  C75  1  0.10894000  0.17118000  0.79576000  1.0
  C  C76  1  0.10802000  0.09208000  0.84085000  1.0
  C  C77  1  0.13922000  0.08922000  0.18969000  1.0
  C  C78  1  0.04062000  0.32080000  0.15053000  1.0
  C  C79  1  0.14210000  0.26442000  0.20376500  1.0
  C  C80  1  0.17126000  0.20038000  0.21406000  1.0
  C  C81  1  0.07224000  0.20112000  0.16789000  1.0
  C  C82  1  0.45728000  0.59766000  0.24708000  1.0
  C  C83  1  0.58690000  0.68490000  0.37452000  1.0
  C  C84  1  0.56038000  0.72266000  0.29919000  1.0
  C  C85  1  0.52496000  0.69838000  0.26387000  1.0
  C  C86  1  0.51642000  0.63070000  0.31599000  1.0
  C  C87  1  0.64112000  0.67660000  0.74561000  1.0
  C  C88  1  0.50490000  0.77282000  0.61327000  1.0
  C  C89  1  0.54702000  0.81594000  0.68336000  1.0
  C  C90  1  0.58450000  0.78888000  0.71963000  1.0
  C  C91  1  0.57698000  0.71158000  0.67444000  1.0
  C  C92  1  0.21804000  0.94620000  0.68798000  1.0
  C  C93  1  0.32144000  0.06296000  0.55899000  1.0
  C  C94  1  0.36240000  0.05054000  0.63576000  1.0
  C  C95  1  0.33256000  0.01948000  0.67151000  1.0
  C  C96  1  0.25556000  0.00052000  0.61854000  1.0
  C  C97  1  0.94818000  0.09092000  0.30397000  1.0
  C  C98  1  0.87544000  0.87714000  0.35919000  1.0
  C  C99  1  0.92936000  0.97584000  0.39115000  1.0
  C  C100  1  0.95094000  0.03444000  0.37552000  1.0
  C  C101  1  0.90182000  0.98236000  0.32437000  1.0
  C  C102  1  0.03422000  0.94870000  0.64850000  1.0
  C  C103  1  0.73646000  0.02694000  0.59907000  1.0
  C  C104  1  0.89110000  0.02010000  0.56707000  1.0
  C  C105  1  0.97324000  0.99934000  0.58133000  1.0
  C  C106  1  0.87744000  0.97890000  0.62987000  1.0
  C  C107  1  0.14582000  0.04048000  0.31213000  1.0
  C  C108  1  0.47190000  0.00258000  0.31443000  1.0
  C  C109  1  0.35374000  0.09840000  0.32746000  1.0
  C  C110  1  0.26396000  0.10870000  0.32686000  1.0
  C  C111  1  0.30852000  0.00670000  0.31385000  1.0
  C  C112  1  0.56748000  0.44140000  0.18409000  1.0
  C  C113  1  0.72296000  0.49624000  0.04793000  1.0
  C  C114  1  0.74950000  0.50222000  0.12634000  1.0
  C  C115  1  0.70622000  0.48750000  0.16393000  1.0
  C  C116  1  0.63080000  0.46544000  0.11102000  1.0
  C  C117  1  0.54602000  0.55052000  0.84985000  1.0
  C  C118  1  0.31142000  0.40810000  0.86326000  1.0
  C  C119  1  0.32472000  0.52496000  0.88155000  1.0
  C  C120  1  0.39036000  0.56410000  0.87892000  1.0
  C  C121  1  0.44250000  0.46744000  0.85600000  1.0
  C  C122  1  0.38902000  0.47154000  0.13902000  1.0
  C  C123  1  0.12214000  0.58920000  0.07536000  1.0
  C  C124  1  0.27736000  0.55116000  0.04948000  1.0
  C  C125  1  0.35090000  0.51824000  0.06702000  1.0
  C  C126  1  0.24474000  0.52650000  0.11467000  1.0
  C  C127  1  0.64548000  0.48832000  0.76413000  1.0
  C  C128  1  0.92510000  0.37444000  0.81755000  1.0
  C  C129  1  0.87900000  0.43494000  0.75058000  1.0
  C  C130  1  0.80190000  0.46696000  0.73592000  1.0
  C  C131  1  0.77640000  0.42902000  0.79882000  1.0
  Co  Co132  1  0.04194000  0.38532000  0.97987000  1.0
  Co  Co133  1  0.58638000  0.90830000  0.46946000  1.0
  H  H134  1  0.20286000  0.02222000  0.75744000  1.0
  H  H135  1  0.16796000  0.08052000  0.71694000  1.0
  H  H136  1  0.10220000  0.94624000  0.72851000  1.0
  H  H137  1  0.00354000  0.03208000  0.68982000  1.0
  H  H138  1  0.08940000  0.04056000  0.65110000  1.0
  H  H139  1  0.23546000  0.06574000  0.23670000  1.0
  H  H140  1  0.17122000  0.00214000  0.22747000  1.0
  H  H141  1  0.10890000  0.13052000  0.27799000  1.0
  H  H142  1  0.98872000  0.09566000  0.23793000  1.0
  H  H143  1  0.00936000  0.01466000  0.25846000  1.0
  H  H144  1  0.57648000  0.52988000  0.24472000  1.0
  H  H145  1  0.56322000  0.58160000  0.19861000  1.0
  H  H146  1  0.44862000  0.47344000  0.22089000  1.0
  H  H147  1  0.38596000  0.56298000  0.17162000  1.0
  H  H148  1  0.47818000  0.54488000  0.13524000  1.0
  H  H149  1  0.67526000  0.58476000  0.71208000  1.0
  H  H150  1  0.56018000  0.60550000  0.72256000  1.0
  H  H151  1  0.68152000  0.57408000  0.79695000  1.0
  H  H152  1  0.51788000  0.63016000  0.80574000  1.0
  H  H153  1  0.48920000  0.55532000  0.78672000  1.0
  H  H154  1  0.89480000  0.48736000  0.02301000  1.0
  H  H155  1  0.68400000  0.37234000  0.03545000  1.0
  H  H156  1  0.77962000  0.27766000  0.00537000  1.0
  H  H157  1  0.87476000  0.19904000  0.97514000  1.0
  H  H158  1  0.98666000  0.12234000  0.93703000  1.0
  H  H159  1  0.16004000  0.26776000  0.93363000  1.0
  H  H160  1  0.14430000  0.41294000  0.89420000  1.0
  H  H161  1  0.40866000  0.36022000  0.92983000  1.0
  H  H162  1  0.35662000  0.33330667  0.00174000  1.0
  H  H163  1  0.29700000  0.32322000  0.06631000  1.0
  H  H164  1  0.21912000  0.30980000  0.13387000  1.0
  H  H165  1  0.97464000  0.35206000  0.07284000  1.0
  H  H166  1  0.09758000  0.46574000  0.05687000  1.0
  H  H167  1  0.05986000  0.66010000  0.00600500  1.0
  H  H168  1  0.00356000  0.61870000  0.94128000  1.0
  H  H169  1  0.95924000  0.57138000  0.88463000  1.0
  H  H170  1  0.92156000  0.50942000  0.82396000  1.0
  H  H171  1  0.97844000  0.33092000  0.89454000  1.0
  H  H172  1  0.48764000  0.01840000  0.53018000  1.0
  H  H173  1  0.22264000  0.98252000  0.51959000  1.0
  H  H174  1  0.27256000  0.89004000  0.47193000  1.0
  H  H175  1  0.33156000  0.80318000  0.43407000  1.0
  H  H176  1  0.41034000  0.71204000  0.39207000  1.0
  H  H177  1  0.65158000  0.78570000  0.41138000  1.0
  H  H178  1  0.71266000  0.92558000  0.38978000  1.0
  H  H179  1  0.93936000  0.79406000  0.42227000  1.0
  H  H180  1  0.86376000  0.76580000  0.48846000  1.0
  H  H181  1  0.77900000  0.73750000  0.54207000  1.0
  H  H182  1  0.67526000  0.71442000  0.59892000  1.0
  H  H183  1  0.48350000  0.86324000  0.55053000  1.0
  H  H184  1  0.66630000  0.93154000  0.55804000  1.0
  H  H185  1  0.72418000  0.12802000  0.54199000  1.0
  H  H186  1  0.66788000  0.13076000  0.47037000  1.0
  H  H187  1  0.61954000  0.12234000  0.40574000  1.0
  H  H188  1  0.55166000  0.10654000  0.33848000  1.0
  H  H189  1  0.50256000  0.91566000  0.37941000  1.0
  H  H190  1  0.15176000  0.09330000  0.92168000  1.0
  H  H191  1  0.14642000  0.24082000  0.84262000  1.0
  H  H192  1  0.10338000  0.19946000  0.76660000  1.0
  H  H193  1  0.10146000  0.04446000  0.85435000  1.0
  H  H194  1  0.01892000  0.09586000  0.74704000  1.0
  H  H195  1  0.03942000  0.02494000  0.78125000  1.0
  H  H196  1  0.21632000  0.15828000  0.91104000  1.0
  H  H197  1  0.97100000  0.31602000  0.14569000  1.0
  H  H198  1  0.16702000  0.30752000  0.21512000  1.0
  H  H199  1  0.22320000  0.18412000  0.23519000  1.0
  H  H200  1  0.03026000  0.18448000  0.14465000  1.0
  H  H201  1  0.19118000  0.07400000  0.16459000  1.0
  H  H202  1  0.07948000  0.07112000  0.17876000  1.0
  H  H203  1  0.04148000  0.36626000  0.16948000  1.0
  H  H204  1  0.57796000  0.63974000  0.39278000  1.0
  H  H205  1  0.58884000  0.76768000  0.30095000  1.0
  H  H206  1  0.52014000  0.72072000  0.23258000  1.0
  H  H207  1  0.50332000  0.58802000  0.33413000  1.0
  H  H208  1  0.41560000  0.62804000  0.22461000  1.0
  H  H209  1  0.41620000  0.56790000  0.26700000  1.0
  H  H210  1  0.65812000  0.68804000  0.37186000  1.0
  H  H211  1  0.48300000  0.72556000  0.60465000  1.0
  H  H212  1  0.52440000  0.86722000  0.67796000  1.0
  H  H213  1  0.59690000  0.81510000  0.74816000  1.0
  H  H214  1  0.58312000  0.66368000  0.65955000  1.0
  H  H215  1  0.61550000  0.69326000  0.77807000  1.0
  H  H216  1  0.71266000  0.67818000  0.74530000  1.0
  H  H217  1  0.44602000  0.81049000  0.61443000  1.0
  H  H218  1  0.25648000  0.08794000  0.55009000  1.0
  H  H219  1  0.41578000  0.07950000  0.63399000  1.0
  H  H220  1  0.35866000  0.01889000  0.70303000  1.0
  H  H221  1  0.20750000  0.98160000  0.59976000  1.0
  H  H222  1  0.25968000  0.92716000  0.71451000  1.0
  H  H223  1  0.20564000  0.90288000  0.66941000  1.0
  H  H224  1  0.36792000  0.09970000  0.55736000  1.0
  H  H225  1  0.83034000  0.87200000  0.33310000  1.0
  H  H226  1  0.93764000  0.95762000  0.42338000  1.0
  H  H227  1  0.97782000  0.07132000  0.39334000  1.0
  H  H228  1  0.88274000  0.96978000  0.29288000  1.0
  H  H229  1  0.97054000  0.13240000  0.32111000  1.0
  H  H230  1  0.88406000  0.10944000  0.29070000  1.0
  H  H231  1  0.93618000  0.84248000  0.35255000  1.0
  H  H232  1  0.70406000  0.99243000  0.61968000  1.0
  H  H233  1  0.87698000  0.04485000  0.53718000  1.0
  H  H234  1  0.03500000  0.00414000  0.56472000  1.0
  H  H235  1  0.84870000  0.96472000  0.66012000  1.0
  H  H236  1  0.08994000  0.92384000  0.62844000  1.0
  H  H237  1  0.01072000  0.91290000  0.67141000  1.0
  H  H238  1  0.72310000  0.07634000  0.61408000  1.0
  H  H239  1  0.47304000  0.94976000  0.30678000  1.0
  H  H240  1  0.39550000  0.13546000  0.33236000  1.0
  H  H241  1  0.22228000  0.15500000  0.33146000  1.0
  H  H242  1  0.30834000  0.95564000  0.30573000  1.0
  H  H243  1  0.10668000  0.05966000  0.34102000  1.0
  H  H244  1  0.14178000  0.98720000  0.30911000  1.0
  H  H245  1  0.50426000  0.02568000  0.28702000  1.0
  H  H246  1  0.66178000  0.50156000  0.03015000  1.0
  H  H247  1  0.81150000  0.52098000  0.12324000  1.0
  H  H248  1  0.72794000  0.49240000  0.19601000  1.0
  H  H249  1  0.58012000  0.44892000  0.09278000  1.0
  H  H250  1  0.60054000  0.42210000  0.21323000  1.0
  H  H251  1  0.54046000  0.39986000  0.16955500  1.0
  H  H252  1  0.75320000  0.54180000  0.04294000  1.0
  H  H253  1  0.25676000  0.42042000  0.84153000  1.0
  H  H254  1  0.25754000  0.53964000  0.89257000  1.0
  H  H255  1  0.38432000  0.61568000  0.88678000  1.0
  H  H256  1  0.48696000  0.42712000  0.84200000  1.0
  H  H257  1  0.60020000  0.50950000  0.85231000  1.0
  H  H258  1  0.55868000  0.59060000  0.87146000  1.0
  H  H259  1  0.35636000  0.36622000  0.84895000  1.0
  H  H260  1  0.08088000  0.57842000  0.10386000  1.0
  H  H261  1  0.27286000  0.57078000  0.01742000  1.0
  H  H262  1  0.41522000  0.50730000  0.05148000  1.0
  H  H263  1  0.20848000  0.52328000  0.14489000  1.0
  H  H264  1  0.43692000  0.43384000  0.12244000  1.0
  H  H265  1  0.35114000  0.44770000  0.16416000  1.0
  H  H266  1  0.12354000  0.64296000  0.07430000  1.0
  H  H267  1  0.89946000  0.32922000  0.82882000  1.0
  H  H268  1  0.94236000  0.42936000  0.73380000  1.0
  H  H269  1  0.79308000  0.49080000  0.70528000  1.0
  H  H270  1  0.74242000  0.41728000  0.82829000  1.0
  H  H271  1  0.62410000  0.48126000  0.73118000  1.0
  H  H272  1  0.60734000  0.45838000  0.78547000  1.0
  H  H273  1  0.98728000  0.35822000  0.79896000  1.0
  N  N274  1  0.92266000  0.38810000  0.00205000  1.0
  N  N275  1  0.03458000  0.29546000  0.96437000  1.0
  N  N276  1  0.04674000  0.47586000  0.99463500  1.0
  N  N277  1  0.99622000  0.41914000  0.92637000  1.0
  N  N278  1  0.16184000  0.38016000  0.95826000  1.0
  N  N279  1  0.09032000  0.35360000  0.03332000  1.0
  N  N280  1  0.46782000  0.93888000  0.48998000  1.0
  N  N281  1  0.53682000  0.84074000  0.43987000  1.0
  N  N282  1  0.63416000  0.97734000  0.49856000  1.0
  N  N283  1  0.56868000  0.96956000  0.42259000  1.0
  N  N284  1  0.70422000  0.87530000  0.44915000  1.0
  N  N285  1  0.60708000  0.84796000  0.51649000  1.0
  N  N286  1  0.13028000  0.14276000  0.86308000  1.0
  N  N287  1  0.09486000  0.10824000  0.79966000  1.0
  N  N288  1  0.08060000  0.26446000  0.17461000  1.0
  N  N289  1  0.12602000  0.16096000  0.19209000  1.0
  N  N290  1  0.55454000  0.68008000  0.33165000  1.0
  N  N291  1  0.49774000  0.64086000  0.27469000  1.0
  N  N292  1  0.54192000  0.76710000  0.65546000  1.0
  N  N293  1  0.60266000  0.72346000  0.71402000  1.0
  N  N294  1  0.31372000  0.03862000  0.60277000  1.0
  N  N295  1  0.26518000  0.98874000  0.66059000  1.0
  N  N296  1  0.89739000  0.94394000  0.35904000  1.0
  N  N297  1  0.93492000  0.03762000  0.33352000  1.0
  N  N298  1  0.83114000  0.00630000  0.59738000  1.0
  N  N299  1  0.96408000  0.97378000  0.62066000  1.0
  N  N300  1  0.38132000  0.03432000  0.31965000  1.0
  N  N301  1  0.23614000  0.05124000  0.31800000  1.0
  N  N302  1  0.70146000  0.48880000  0.09346000  1.0
  N  N303  1  0.63156000  0.46516000  0.15410000  1.0
  N  N304  1  0.35802000  0.46466000  0.86709000  1.0
  N  N305  1  0.46372000  0.52760000  0.86302000  1.0
  N  N306  1  0.21106000  0.55570000  0.07941000  1.0
  N  N307  1  0.32990000  0.50310000  0.10779000  1.0
  N  N308  1  0.86236000  0.41120000  0.78987000  1.0
  N  N309  1  0.73816000  0.46314000  0.76634000  1.0
