# generated using pymatgen
data_CoH57C33(NO2)6
_symmetry_space_group_name_H-M   'P 1'
_cell_length_a   15.47340000
_cell_length_b   39.31450000
_cell_length_c   39.31590588
_cell_angle_alpha   60.00554832
_cell_angle_beta   86.97622693
_cell_angle_gamma   87.75100000
_symmetry_Int_Tables_number   1
_chemical_formula_structural   CoH57C33(NO2)6
_chemical_formula_sum   'Co6 H342 C198 N36 O72'
_cell_volume   20682.76169006
_cell_formula_units_Z   6
loop_
 _symmetry_equiv_pos_site_id
 _symmetry_equiv_pos_as_xyz
  1  'x, y, z'
loop_
 _atom_site_type_symbol
 _atom_site_label
 _atom_site_symmetry_multiplicity
 _atom_site_fract_x
 _atom_site_fract_y
 _atom_site_fract_z
 _atom_site_occupancy
  C  C0  1  0.85692000  0.51782000  0.93143000  1.0
  C  C1  1  0.94892000  0.50376000  0.03388000  1.0
  C  C2  1  0.85482000  0.60731000  0.94028000  1.0
  C  C3  1  0.89302000  0.38664000  0.13148000  1.0
  C  C4  1  0.72958000  0.51633000  0.03970000  1.0
  C  C5  1  0.81214000  0.49575000  0.14607000  1.0
  C  C6  1  0.48020000  0.41239000  0.53646000  1.0
  C  C7  1  0.59444000  0.50602000  0.54094000  1.0
  C  C8  1  0.51890000  0.50287000  0.44193000  1.0
  C  C9  1  0.54246000  0.52901000  0.62812000  1.0
  C  C10  1  0.36914000  0.51346000  0.52788000  1.0
  C  C11  1  0.42274000  0.62442000  0.49030000  1.0
  C  C12  1  0.10390000  0.11095500  0.45701500  1.0
  C  C13  1  0.25606000  0.02068000  0.53257000  1.0
  C  C14  1  0.16424000  0.11192000  0.54746000  1.0
  C  C15  1  0.25440000  0.91849000  0.54533000  1.0
  C  C16  1  0.03516000  0.01055000  0.56751000  1.0
  C  C17  1  0.11460000  0.92281000  0.66042000  1.0
  C  C18  1  0.04268000  0.27614000  0.18324000  1.0
  C  C19  1  0.09624000  0.24121000  0.21471000  1.0
  C  C20  1  0.10241000  0.18031000  0.27764000  1.0
  C  C21  1  0.12280000  0.19314000  0.30739000  1.0
  C  C22  1  0.04182000  0.19460000  0.33114000  1.0
  C  C23  1  0.90202000  0.31170000  0.16744000  1.0
  C  C24  1  0.93692000  0.35122000  0.13281000  1.0
  C  C25  1  0.03590000  0.30620000  0.32950000  1.0
  C  C26  1  0.11564000  0.32830000  0.30358000  1.0
  C  C27  1  0.18220000  0.30130000  0.30072000  1.0
  C  C28  1  0.98352000  0.21842500  0.37534500  1.0
  C  C29  1  0.93292000  0.25456000  0.34401000  1.0
  C  C30  1  0.93242000  0.31533000  0.28072000  1.0
  C  C31  1  0.90916000  0.30192000  0.25171000  1.0
  C  C32  1  0.98516000  0.30506000  0.22328000  1.0
  C  C33  1  0.11478000  0.17706500  0.39342500  1.0
  C  C34  1  0.07826000  0.13489000  0.41493000  1.0
  C  C35  1  0.99580000  0.18798000  0.23053000  1.0
  C  C36  1  0.91752000  0.16559000  0.25751000  1.0
  C  C37  1  0.85098000  0.19241000  0.26075000  1.0
  C  C38  1  0.49386000  0.50801000  0.74871000  1.0
  C  C39  1  0.48664000  0.50270000  0.79064000  1.0
  C  C40  1  0.54760000  0.51727000  0.83794000  1.0
  C  C41  1  0.62288000  0.48792000  0.85581000  1.0
  C  C42  1  0.71252000  0.50716000  0.84186000  1.0
  C  C43  1  0.58386000  0.53249000  0.68767000  1.0
  C  C44  1  0.54892000  0.50639000  0.67232000  1.0
  C  C45  1  0.83892000  0.41050000  0.83381000  1.0
  C  C46  1  0.77204000  0.37745000  0.84917000  1.0
  C  C47  1  0.69296000  0.38568000  0.86733000  1.0
  C  C48  1  0.86470000  0.48482000  0.83984000  1.0
  C  C49  1  0.85870000  0.48136000  0.80230000  1.0
  C  C50  1  0.79538000  0.45316000  0.76651000  1.0
  C  C51  1  0.73476000  0.48665000  0.73876000  1.0
  C  C52  1  0.63850000  0.47853000  0.75152000  1.0
  C  C53  1  0.79824000  0.47794000  0.90176000  1.0
  C  C54  1  0.86038000  0.50997000  0.89764000  1.0
  C  C55  1  0.50252000  0.57120000  0.77460000  1.0
  C  C56  1  0.57266000  0.60232000  0.76300000  1.0
  C  C57  1  0.63300000  0.60496000  0.73093000  1.0
  C  C58  1  0.26540000  0.33643000  0.56284000  1.0
  C  C59  1  0.19534000  0.30908000  0.56311000  1.0
  C  C60  1  0.13028000  0.24460000  0.59180000  1.0
  C  C61  1  0.16596000  0.22977000  0.56414000  1.0
  C  C62  1  0.24076000  0.19978000  0.58175000  1.0
  C  C63  1  0.40838000  0.34574000  0.58052000  1.0
  C  C64  1  0.45566000  0.37377000  0.54110000  1.0
  C  C65  1  0.48648000  0.23552000  0.50469000  1.0
  C  C66  1  0.46314000  0.27518000  0.46848000  1.0
  C  C67  1  0.36842000  0.27971000  0.46178000  1.0
  C  C68  1  0.36850000  0.16920000  0.56717000  1.0
  C  C69  1  0.44052000  0.19147000  0.57380000  1.0
  C  C70  1  0.51096000  0.25330000  0.55465000  1.0
  C  C71  1  0.46324000  0.26908000  0.57927000  1.0
  C  C72  1  0.38936000  0.29779000  0.55699000  1.0
  C  C73  1  0.23248000  0.17411000  0.53527000  1.0
  C  C74  1  0.18834000  0.13540000  0.56601000  1.0
  C  C75  1  0.16730000  0.27008000  0.63436000  1.0
  C  C76  1  0.19396000  0.23241000  0.67204000  1.0
  C  C77  1  0.28948000  0.22556000  0.67355000  1.0
  C  C78  1  0.96672000  0.87829000  0.77272000  1.0
  C  C79  1  0.90832000  0.84910000  0.80811000  1.0
  C  C80  1  0.89090000  0.78787000  0.87023000  1.0
  C  C81  1  0.86080000  0.75837000  0.85860000  1.0
  C  C82  1  0.93516000  0.73183000  0.85737000  1.0
  C  C83  1  0.10662000  0.88983000  0.73557000  1.0
  C  C84  1  0.07410000  0.92380000  0.69559000  1.0
  C  C85  1  0.93804000  0.73088000  0.74662000  1.0
  C  C86  1  0.86362000  0.75931000  0.72394000  1.0
  C  C87  1  0.79818000  0.76401000  0.75056000  1.0
  C  C88  1  0.98034000  0.68486000  0.83519000  1.0
  C  C89  1  0.03820000  0.71348000  0.79934000  1.0
  C  C90  1  0.05358000  0.77546000  0.73758000  1.0
  C  C91  1  0.08354000  0.80431000  0.75007000  1.0
  C  C92  1  0.01304000  0.83479000  0.74620000  1.0
  C  C93  1  0.84588000  0.67288000  0.87504000  1.0
  C  C94  1  0.87804000  0.65012000  0.91770000  1.0
  C  C95  1  0.00876000  0.83170000  0.86087000  1.0
  C  C96  1  0.08092000  0.80246000  0.88477000  1.0
  C  C97  1  0.14312000  0.79379000  0.85972000  1.0
  C  C98  1  0.73680000  0.52246000  0.35983000  1.0
  C  C99  1  0.80318000  0.52182000  0.32916000  1.0
  C  C100  1  0.85820000  0.55169000  0.26105000  1.0
  C  C101  1  0.81244000  0.52714000  0.24690000  1.0
  C  C102  1  0.73574000  0.54892000  0.22058000  1.0
  C  C103  1  0.60076000  0.54600000  0.37602000  1.0
  C  C104  1  0.54814000  0.50862000  0.40248000  1.0
  C  C105  1  0.46330000  0.49223000  0.26016000  1.0
  C  C106  1  0.47886000  0.45280000  0.29797000  1.0
  C  C107  1  0.56850000  0.43717000  0.29860000  1.0
  C  C108  1  0.60122000  0.54229000  0.19364000  1.0
  C  C109  1  0.53436000  0.55497000  0.21615000  1.0
  C  C110  1  0.47458000  0.54111000  0.28065000  1.0
  C  C111  1  0.53946000  0.55915000  0.29518000  1.0
  C  C112  1  0.60706000  0.52917000  0.32212000  1.0
  C  C113  1  0.72462000  0.49842000  0.20013000  1.0
  C  C114  1  0.77122000  0.52276000  0.15934000  1.0
  C  C115  1  0.84272000  0.59103000  0.29328000  1.0
  C  C116  1  0.82204000  0.63199000  0.25828000  1.0
  C  C117  1  0.72742000  0.63912000  0.25194000  1.0
  C  C118  1  0.22194000  0.84451000  0.49152000  1.0
  C  C119  1  0.21154000  0.81367000  0.47832000  1.0
  C  C120  1  0.19010000  0.74560000  0.49525000  1.0
  C  C121  1  0.28224000  0.73316000  0.48875000  1.0
  C  C122  1  0.33244000  0.71076000  0.52687000  1.0
  C  C123  1  0.24348000  0.85437000  0.54759000  1.0
  C  C124  1  0.26444000  0.89860000  0.52112000  1.0
  C  C125  1  0.59112000  0.75861000  0.52895000  1.0
  C  C126  1  0.60266000  0.79678000  0.48911000  1.0
  C  C127  1  0.54528000  0.79895000  0.45875000  1.0
  C  C128  1  0.47424000  0.68613000  0.55613000  1.0
  C  C129  1  0.48312000  0.71233000  0.57488000  1.0
  C  C130  1  0.48808000  0.77867000  0.56517000  1.0
  C  C131  1  0.39242000  0.78982000  0.56750000  1.0
  C  C132  1  0.35794000  0.82081000  0.52726000  1.0
  C  C133  1  0.44222000  0.68394000  0.49683000  1.0
  C  C134  1  0.40736000  0.64159000  0.51686000  1.0
  C  C135  1  0.10012000  0.77389000  0.52804000  1.0
  C  C136  1  0.08460000  0.73762000  0.56911000  1.0
  C  C137  1  0.15242000  0.73241000  0.59697000  1.0
  C  C138  1  0.20110000  0.53405000  0.97211000  1.0
  C  C139  1  0.29594000  0.53677000  0.95667000  1.0
  C  C140  1  0.44322000  0.51025000  0.97223000  1.0
  C  C141  1  0.47968000  0.53707000  0.98586000  1.0
  C  C142  1  0.46428000  0.52186000  0.03028000  1.0
  C  C143  1  0.10926000  0.50187000  0.03232000  1.0
  C  C144  1  0.02822000  0.52782000  0.01541000  1.0
  C  C145  1  0.36958000  0.61162000  0.06466000  1.0
  C  C146  1  0.35244000  0.65062000  0.02658000  1.0
  C  C147  1  0.38750000  0.64999000  0.99084000  1.0
  C  C148  1  0.47446000  0.53614000  0.08451000  1.0
  C  C149  1  0.37762000  0.54006000  0.09383000  1.0
  C  C150  1  0.23944000  0.57513000  0.07204000  1.0
  C  C151  1  0.19498000  0.54609000  0.06340000  1.0
  C  C152  1  0.20634000  0.55653000  0.02004000  1.0
  C  C153  1  0.59104000  0.55678000  0.03433000  1.0
  C  C154  1  0.64876000  0.52059000  0.06035000  1.0
  C  C155  1  0.32624000  0.46668000  0.98062000  1.0
  C  C156  1  0.34718000  0.42839000  0.01867000  1.0
  C  C157  1  0.29962000  0.42608000  0.05373000  1.0
  C  C158  1  0.82978000  0.48362000  0.48280000  1.0
  C  C159  1  0.92264000  0.48015000  0.46842000  1.0
  C  C160  1  0.06358000  0.44726000  0.48289000  1.0
  C  C161  1  0.11322000  0.47415000  0.49267000  1.0
  C  C162  1  0.11740000  0.45869000  0.53722000  1.0
  C  C163  1  0.72388000  0.46701000  0.53641000  1.0
  C  C164  1  0.68466000  0.50774000  0.52514000  1.0
  C  C165  1  0.01652000  0.54100000  0.59058000  1.0
  C  C166  1  0.99072000  0.58069000  0.55508000  1.0
  C  C167  1  0.03318000  0.58667000  0.51759000  1.0
  C  C168  1  0.13508000  0.47548000  0.58904000  1.0
  C  C169  1  0.04538000  0.47207000  0.60923000  1.0
  C  C170  1  0.89728000  0.49827000  0.59917000  1.0
  C  C171  1  0.85820000  0.47252000  0.58492000  1.0
  C  C172  1  0.87048000  0.48914000  0.53999000  1.0
  C  C173  1  0.21006000  0.51431000  0.52524000  1.0
  C  C174  1  0.29288000  0.48918000  0.53327000  1.0
  C  C175  1  0.93316000  0.40857000  0.49753000  1.0
  C  C176  1  0.95540000  0.37040000  0.53559000  1.0
  C  C177  1  0.91254000  0.36840000  0.57138000  1.0
  C  C178  1  0.51302000  0.05075000  0.47379000  1.0
  C  C179  1  0.60806000  0.05729000  0.45826000  1.0
  C  C180  1  0.75752000  0.03529000  0.47498000  1.0
  C  C181  1  0.78224000  0.05798000  0.49529000  1.0
  C  C182  1  0.76116000  0.03577000  0.54005000  1.0
  C  C183  1  0.41878000  0.01577000  0.53260000  1.0
  C  C184  1  0.33882000  0.04288500  0.51750000  1.0
  C  C185  1  0.67264000  0.11577000  0.57929000  1.0
  C  C186  1  0.66382000  0.15521000  0.54059000  1.0
  C  C187  1  0.71102000  0.15517500  0.50657000  1.0
  C  C188  1  0.77182000  0.03764000  0.60177000  1.0
  C  C189  1  0.67436000  0.04418000  0.60777000  1.0
  C  C190  1  0.54162000  0.08230000  0.58147000  1.0
  C  C191  1  0.49846000  0.05586000  0.56911000  1.0
  C  C192  1  0.51396000  0.06912000  0.52512000  1.0
  C  C193  1  0.89930000  0.05256000  0.55794000  1.0
  C  C194  1  0.93834000  0.01177000  0.56815000  1.0
  C  C195  1  0.65316000  0.99001000  0.47585000  1.0
  C  C196  1  0.67358000  0.95042000  0.51255000  1.0
  C  C197  1  0.61408000  0.94265000  0.54668000  1.0
  Co  Co198  1  0.84012000  0.54351000  0.96931000  1.0
  Co  Co199  1  0.83480000  0.46101000  0.10168000  1.0
  Co  Co200  1  0.49338000  0.47668000  0.50525000  1.0
  Co  Co201  1  0.46450000  0.55407000  0.55744000  1.0
  Co  Co202  1  0.13320000  0.07829000  0.51917000  1.0
  Co  Co203  1  0.16236000  0.95024000  0.58405000  1.0
  H  H204  1  0.93098000  0.26146000  0.21735000  1.0
  H  H205  1  0.00088000  0.22525000  0.39839000  1.0
  H  H206  1  0.93766000  0.19358000  0.39002000  1.0
  H  H207  1  0.89064000  0.26655000  0.35950000  1.0
  H  H208  1  0.88798000  0.24324000  0.33104000  1.0
  H  H209  1  0.96380000  0.34433000  0.26321000  1.0
  H  H210  1  0.87126000  0.32121000  0.29332000  1.0
  H  H211  1  0.88504000  0.27144000  0.26763000  1.0
  H  H212  1  0.85498000  0.32105000  0.23443000  1.0
  H  H213  1  0.00468000  0.33619000  0.20446000  1.0
  H  H214  1  0.04074000  0.28915000  0.24184000  1.0
  H  H215  1  0.12192000  0.18723000  0.41501000  1.0
  H  H216  1  0.18220000  0.17584000  0.38274000  1.0
  H  H217  1  0.00656000  0.13521000  0.41491000  1.0
  H  H218  1  0.10242000  0.11933000  0.39918000  1.0
  H  H219  1  0.05970000  0.28496000  0.35906000  1.0
  H  H220  1  0.99254000  0.32726000  0.33369000  1.0
  H  H221  1  0.09628000  0.35167000  0.27393000  1.0
  H  H222  1  0.14382000  0.34458000  0.31671000  1.0
  H  H223  1  0.10128000  0.23154000  0.34547000  1.0
  H  H224  1  0.02480000  0.26848500  0.16084500  1.0
  H  H225  1  0.08724000  0.30139000  0.16773000  1.0
  H  H226  1  0.14018000  0.22978000  0.19921000  1.0
  H  H227  1  0.13914000  0.25349000  0.22755000  1.0
  H  H228  1  0.07396000  0.15059000  0.29483000  1.0
  H  H229  1  0.16450000  0.17602000  0.26448000  1.0
  H  H230  1  0.15450000  0.22216000  0.29239000  1.0
  H  H231  1  0.16992000  0.17137000  0.32770000  1.0
  H  H232  1  0.00832000  0.16591000  0.34562000  1.0
  H  H233  1  0.99700000  0.21634000  0.30930000  1.0
  H  H234  1  0.88128000  0.29392000  0.15449000  1.0
  H  H235  1  0.84068000  0.31667000  0.18049000  1.0
  H  H236  1  0.92774000  0.35220000  0.10447000  1.0
  H  H237  1  0.00708000  0.35415000  0.13467000  1.0
  H  H238  1  0.97042000  0.20873000  0.20118000  1.0
  H  H239  1  0.03922000  0.16702000  0.22623000  1.0
  H  H240  1  0.93890000  0.14269000  0.28700000  1.0
  H  H241  1  0.88846000  0.14880000  0.24514000  1.0
  H  H242  1  0.61068000  0.53577000  0.73575000  1.0
  H  H243  1  0.91520000  0.46362000  0.85848000  1.0
  H  H244  1  0.89008000  0.51466000  0.82946000  1.0
  H  H245  1  0.92576000  0.47730000  0.79300000  1.0
  H  H246  1  0.83698000  0.51050000  0.77873000  1.0
  H  H247  1  0.77076000  0.42577000  0.76914000  1.0
  H  H248  1  0.86054000  0.45762000  0.75154000  1.0
  H  H249  1  0.75278000  0.51520000  0.73536000  1.0
  H  H250  1  0.74414000  0.48945000  0.70926000  1.0
  H  H251  1  0.61564000  0.45476000  0.74680000  1.0
  H  H252  1  0.63412000  0.46732000  0.78363000  1.0
  H  H253  1  0.82618000  0.44883000  0.92310000  1.0
  H  H254  1  0.73554000  0.48059000  0.91556000  1.0
  H  H255  1  0.92836000  0.50217000  0.89343000  1.0
  H  H256  1  0.84490000  0.53839000  0.87111000  1.0
  H  H257  1  0.86382000  0.40987000  0.86009000  1.0
  H  H258  1  0.89532000  0.40297000  0.81980000  1.0
  H  H259  1  0.75580000  0.37145000  0.82543000  1.0
  H  H260  1  0.80384000  0.34973000  0.87131000  1.0
  H  H261  1  0.76280000  0.45044000  0.87219000  1.0
  H  H262  1  0.45058000  0.53292000  0.72959000  1.0
  H  H263  1  0.46648000  0.48144000  0.75033000  1.0
  H  H264  1  0.41724000  0.50552000  0.79806000  1.0
  H  H265  1  0.50582000  0.47185000  0.81157000  1.0
  H  H266  1  0.55802000  0.54208000  0.84322000  1.0
  H  H267  1  0.48666000  0.50331000  0.85486000  1.0
  H  H268  1  0.61898000  0.46398000  0.84884000  1.0
  H  H269  1  0.61546000  0.47419000  0.88825000  1.0
  H  H270  1  0.71426000  0.53368000  0.84511000  1.0
  H  H271  1  0.71912000  0.51787000  0.80988000  1.0
  H  H272  1  0.54484000  0.56031000  0.67519000  1.0
  H  H273  1  0.65054000  0.54182000  0.67507000  1.0
  H  H274  1  0.48400000  0.49479000  0.68574000  1.0
  H  H275  1  0.59350000  0.48097000  0.67998000  1.0
  H  H276  1  0.47036000  0.57745000  0.74742000  1.0
  H  H277  1  0.45108000  0.57521000  0.79330000  1.0
  H  H278  1  0.60844000  0.59637000  0.78934000  1.0
  H  H279  1  0.53966000  0.63127000  0.75320000  1.0
  H  H280  1  0.33816000  0.29528000  0.60768000  1.0
  H  H281  1  0.39544000  0.15913000  0.54687000  1.0
  H  H282  1  0.35528000  0.14199000  0.59569000  1.0
  H  H283  1  0.50224000  0.17460000  0.57806000  1.0
  H  H284  1  0.42462000  0.19020500  0.60228000  1.0
  H  H285  1  0.54284000  0.27884000  0.52915000  1.0
  H  H286  1  0.56470000  0.23337000  0.57186000  1.0
  H  H287  1  0.43704000  0.24455000  0.60732000  1.0
  H  H288  1  0.51168000  0.28410000  0.58677000  1.0
  H  H289  1  0.41158000  0.31955000  0.52663000  1.0
  H  H290  1  0.34074000  0.27986000  0.55357000  1.0
  H  H291  1  0.27282000  0.16896000  0.51385000  1.0
  H  H292  1  0.18146000  0.19536000  0.51726000  1.0
  H  H293  1  0.23234000  0.11705000  0.59012000  1.0
  H  H294  1  0.12866000  0.14259000  0.57827000  1.0
  H  H295  1  0.46108000  0.21200000  0.50035000  1.0
  H  H296  1  0.55822000  0.23168000  0.50502000  1.0
  H  H297  1  0.48776000  0.30005000  0.47097000  1.0
  H  H298  1  0.49930000  0.27688000  0.44239000  1.0
  H  H299  1  0.30452000  0.21952000  0.52816000  1.0
  H  H300  1  0.23792000  0.35027000  0.57986000  1.0
  H  H301  1  0.27426000  0.36092000  0.53205000  1.0
  H  H302  1  0.13152000  0.32376000  0.56044000  1.0
  H  H303  1  0.20666000  0.30796000  0.53562000  1.0
  H  H304  1  0.11068000  0.21817000  0.61986000  1.0
  H  H305  1  0.06926000  0.26160000  0.57984000  1.0
  H  H306  1  0.18648000  0.25452000  0.53507000  1.0
  H  H307  1  0.11186000  0.21532000  0.55901000  1.0
  H  H308  1  0.21610000  0.17202000  0.60725000  1.0
  H  H309  1  0.28622000  0.21225000  0.59340000  1.0
  H  H310  1  0.37092000  0.36317000  0.59172000  1.0
  H  H311  1  0.45802000  0.32955000  0.60280000  1.0
  H  H312  1  0.41274000  0.38140000  0.51645000  1.0
  H  H313  1  0.51448000  0.35900000  0.53678000  1.0
  H  H314  1  0.19758000  0.29494000  0.63490000  1.0
  H  H315  1  0.09606000  0.27490000  0.63596000  1.0
  H  H316  1  0.15936000  0.20650000  0.67556000  1.0
  H  H317  1  0.17000000  0.23538000  0.69768000  1.0
  H  H318  1  0.07316000  0.84189000  0.78768000  1.0
  H  H319  1  0.95654000  0.66242000  0.82871000  1.0
  H  H320  1  0.02284000  0.66862000  0.86061000  1.0
  H  H321  1  0.07630000  0.69596000  0.78845000  1.0
  H  H322  1  0.08636000  0.72514000  0.81070000  1.0
  H  H323  1  0.02630000  0.79333000  0.70802000  1.0
  H  H324  1  0.11170000  0.76029000  0.73308000  1.0
  H  H325  1  0.10604000  0.78832000  0.78059000  1.0
  H  H326  1  0.14028000  0.81982000  0.73070000  1.0
  H  H327  1  0.99422000  0.85289000  0.71512000  1.0
  H  H328  1  0.95530000  0.81775000  0.76321000  1.0
  H  H329  1  0.83186000  0.65197000  0.86476000  1.0
  H  H330  1  0.78168000  0.68643000  0.87552000  1.0
  H  H331  1  0.94944000  0.65115000  0.91830000  1.0
  H  H332  1  0.85116000  0.66436000  0.93435000  1.0
  H  H333  1  0.90826000  0.70230000  0.76792000  1.0
  H  H334  1  0.97952000  0.72514000  0.72590000  1.0
  H  H335  1  0.88908000  0.78827000  0.70092000  1.0
  H  H336  1  0.83236000  0.74739000  0.70725000  1.0
  H  H337  1  0.87058000  0.71952000  0.82039000  1.0
  H  H338  1  0.99042000  0.90050000  0.77956000  1.0
  H  H339  1  0.92370000  0.89456000  0.74756000  1.0
  H  H340  1  0.86868000  0.86638000  0.81883000  1.0
  H  H341  1  0.86160000  0.83714000  0.79642000  1.0
  H  H342  1  0.91748000  0.77029000  0.89993000  1.0
  H  H343  1  0.83302000  0.80344000  0.87425000  1.0
  H  H344  1  0.82968000  0.77381000  0.82981000  1.0
  H  H345  1  0.81078000  0.73997000  0.88096000  1.0
  H  H346  1  0.96716000  0.71656000  0.88604000  1.0
  H  H347  1  0.98380000  0.75187000  0.83542000  1.0
  H  H348  1  0.13184000  0.90367000  0.75176000  1.0
  H  H349  1  0.16496000  0.87513000  0.73071000  1.0
  H  H350  1  0.08790000  0.95259000  0.69299000  1.0
  H  H351  1  0.00322000  0.92290000  0.69360000  1.0
  H  H352  1  0.04116000  0.85939000  0.83925000  1.0
  H  H353  1  0.96766000  0.83894000  0.88061000  1.0
  H  H354  1  0.05292000  0.77504000  0.90943000  1.0
  H  H355  1  0.11584000  0.81549000  0.89952000  1.0
  H  H356  1  0.67092000  0.57335000  0.32397000  1.0
  H  H357  1  0.56768000  0.52337000  0.18502000  1.0
  H  H358  1  0.62046000  0.56897000  0.16558000  1.0
  H  H359  1  0.47310000  0.56403000  0.19996000  1.0
  H  H360  1  0.55912000  0.58190000  0.21451000  1.0
  H  H361  1  0.43810000  0.51868000  0.30710000  1.0
  H  H362  1  0.42600000  0.56407000  0.26276000  1.0
  H  H363  1  0.57328000  0.58412000  0.26999000  1.0
  H  H364  1  0.50116000  0.57144000  0.31126000  1.0
  H  H365  1  0.57714000  0.50030000  0.34226000  1.0
  H  H366  1  0.65210000  0.52352000  0.30258000  1.0
  H  H367  1  0.67748000  0.47878000  0.19816000  1.0
  H  H368  1  0.77210000  0.47796000  0.22158000  1.0
  H  H369  1  0.72544000  0.54345000  0.13717000  1.0
  H  H370  1  0.82398000  0.53979000  0.16152000  1.0
  H  H371  1  0.47680000  0.48737000  0.23486000  1.0
  H  H372  1  0.39316000  0.50024000  0.25913000  1.0
  H  H373  1  0.46364000  0.45580000  0.32436000  1.0
  H  H374  1  0.43106000  0.43141000  0.29978000  1.0
  H  H375  1  0.65774000  0.50087000  0.24454000  1.0
  H  H376  1  0.76986000  0.53537000  0.37515000  1.0
  H  H377  1  0.72356000  0.49146000  0.38254000  1.0
  H  H378  1  0.86854000  0.51508000  0.34186000  1.0
  H  H379  1  0.78664000  0.49611000  0.32657000  1.0
  H  H380  1  0.87534000  0.57980000  0.23427000  1.0
  H  H381  1  0.92072000  0.53685000  0.27375000  1.0
  H  H382  1  0.79102000  0.49858000  0.27180000  1.0
  H  H383  1  0.86146000  0.52018000  0.22951000  1.0
  H  H384  1  0.76002000  0.57269000  0.19143000  1.0
  H  H385  1  0.69754000  0.56342000  0.23458000  1.0
  H  H386  1  0.64278000  0.55202000  0.39452000  1.0
  H  H387  1  0.55496000  0.57147000  0.36322000  1.0
  H  H388  1  0.58754000  0.48212000  0.40850000  1.0
  H  H389  1  0.48996000  0.50849000  0.38710000  1.0
  H  H390  1  0.81738000  0.59118000  0.32017000  1.0
  H  H391  1  0.91430000  0.58730000  0.29591000  1.0
  H  H392  1  0.85840000  0.63657000  0.23116000  1.0
  H  H393  1  0.84880000  0.65431000  0.26428000  1.0
  H  H394  1  0.23466000  0.80238000  0.54942000  1.0
  H  H395  1  0.54044000  0.67733000  0.55070000  1.0
  H  H396  1  0.44244000  0.65841000  0.57849000  1.0
  H  H397  1  0.53482000  0.69947000  0.59677000  1.0
  H  H398  1  0.42204000  0.70958000  0.59210000  1.0
  H  H399  1  0.52478000  0.80645000  0.54949000  1.0
  H  H400  1  0.51294000  0.76282000  0.59545000  1.0
  H  H401  1  0.35140000  0.76342000  0.58052000  1.0
  H  H402  1  0.38750000  0.80170000  0.58786000  1.0
  H  H403  1  0.39624000  0.84804000  0.51494000  1.0
  H  H404  1  0.37032000  0.80869000  0.50729000  1.0
  H  H405  1  0.51330000  0.68256000  0.49116000  1.0
  H  H406  1  0.41572000  0.70167000  0.46707000  1.0
  H  H407  1  0.43870000  0.62250000  0.54527000  1.0
  H  H408  1  0.33644000  0.64187000  0.52259000  1.0
  H  H409  1  0.60998000  0.73393000  0.52383000  1.0
  H  H410  1  0.63856000  0.75794000  0.54966000  1.0
  H  H411  1  0.59354000  0.82289000  0.49298000  1.0
  H  H412  1  0.67156000  0.79799000  0.47883000  1.0
  H  H413  1  0.45090000  0.73291000  0.50115000  1.0
  H  H414  1  0.15648000  0.85687000  0.49256000  1.0
  H  H415  1  0.25990000  0.86942000  0.46797000  1.0
  H  H416  1  0.16244000  0.82518000  0.45523000  1.0
  H  H417  1  0.27386000  0.81268000  0.46359000  1.0
  H  H418  1  0.15586000  0.71806000  0.51583000  1.0
  H  H419  1  0.15602000  0.75853000  0.46708000  1.0
  H  H420  1  0.31982000  0.75873000  0.46648000  1.0
  H  H421  1  0.27490000  0.71350000  0.47642000  1.0
  H  H422  1  0.30098000  0.68226000  0.54713000  1.0
  H  H423  1  0.32704000  0.72868000  0.54153000  1.0
  H  H424  1  0.17296000  0.85232000  0.55581000  1.0
  H  H425  1  0.27650000  0.84239000  0.57584000  1.0
  H  H426  1  0.21982000  0.91268000  0.49632000  1.0
  H  H427  1  0.33230000  0.90211000  0.50948000  1.0
  H  H428  1  0.09016000  0.79990000  0.53188000  1.0
  H  H429  1  0.04872000  0.77576000  0.50833000  1.0
  H  H430  1  0.07844000  0.71069000  0.56690000  1.0
  H  H431  1  0.01972000  0.74136000  0.58067000  1.0
  H  H432  1  0.24024000  0.50165000  0.02979000  1.0
  H  H433  1  0.51204000  0.55263000  0.09481000  1.0
  H  H434  1  0.49366000  0.50475000  0.10345000  1.0
  H  H435  1  0.37080000  0.53714000  0.12352000  1.0
  H  H436  1  0.34700000  0.51398000  0.09624000  1.0
  H  H437  1  0.20818000  0.60418000  0.05347000  1.0
  H  H438  1  0.22398000  0.56694000  0.10317000  1.0
  H  H439  1  0.21672000  0.51551000  0.08330000  1.0
  H  H440  1  0.12478000  0.54701000  0.07053000  1.0
  H  H441  1  0.16200000  0.58151000  0.00204000  1.0
  H  H442  1  0.27332000  0.56713000  0.00942000  1.0
  H  H443  1  0.60807000  0.58091000  0.03978000  1.0
  H  H444  1  0.60684000  0.56956000  0.00252000  1.0
  H  H445  1  0.66504000  0.52276000  0.08621000  1.0
  H  H446  1  0.61406000  0.49251000  0.07282000  1.0
  H  H447  1  0.44078000  0.60925000  0.06766000  1.0
  H  H448  1  0.34176000  0.61368000  0.09032000  1.0
  H  H449  1  0.28226000  0.65837000  0.02447000  1.0
  H  H450  1  0.38310000  0.67452000  0.02895000  1.0
  H  H451  1  0.46638000  0.57652000  0.02512000  1.0
  H  H452  1  0.16654000  0.51349000  0.96607000  1.0
  H  H453  1  0.16912000  0.56311000  0.95359000  1.0
  H  H454  1  0.29654000  0.54092000  0.92648000  1.0
  H  H455  1  0.32198000  0.56405000  0.95369000  1.0
  H  H456  1  0.48254000  0.48266000  0.98595000  1.0
  H  H457  1  0.45530000  0.52388000  0.93987000  1.0
  H  H458  1  0.45392000  0.56753000  0.96867000  1.0
  H  H459  1  0.55008000  0.53809000  0.97867000  1.0
  H  H460  1  0.49352000  0.49205000  0.04724000  1.0
  H  H461  1  0.39340000  0.51841000  0.03667000  1.0
  H  H462  1  0.10586000  0.47600000  0.02798000  1.0
  H  H463  1  0.10786000  0.48906000  0.06478000  1.0
  H  H464  1  0.02908000  0.54026000  0.98311000  1.0
  H  H465  1  0.02654000  0.55189000  0.02244000  1.0
  H  H466  1  0.25628000  0.46624000  0.97606000  1.0
  H  H467  1  0.36052000  0.46625000  0.95517000  1.0
  H  H468  1  0.41828000  0.42509000  0.02269000  1.0
  H  H469  1  0.32950000  0.40330000  0.01487000  1.0
  H  H470  1  0.83878000  0.43871000  0.54014000  1.0
  H  H471  1  0.17526000  0.49419000  0.59563000  1.0
  H  H472  1  0.16700000  0.44595000  0.60409000  1.0
  H  H473  1  0.05352000  0.46675000  0.63950000  1.0
  H  H474  1  0.01650000  0.44518000  0.61261000  1.0
  H  H475  1  0.85732000  0.52566000  0.58721000  1.0
  H  H476  1  0.88920000  0.48347000  0.63177000  1.0
  H  H477  1  0.88382000  0.44193000  0.60069000  1.0
  H  H478  1  0.78894000  0.47081000  0.59408000  1.0
  H  H479  1  0.85726000  0.52133000  0.52344000  1.0
  H  H480  1  0.93994000  0.48592000  0.53380000  1.0
  H  H481  1  0.21700000  0.53722000  0.53373000  1.0
  H  H482  1  0.20164000  0.53145000  0.49293000  1.0
  H  H483  1  0.29152000  0.46413000  0.56389000  1.0
  H  H484  1  0.29770000  0.47807000  0.51224000  1.0
  H  H485  1  0.08776000  0.54122000  0.59282000  1.0
  H  H486  1  0.98768000  0.53920000  0.61801000  1.0
  H  H487  1  0.91908000  0.58359000  0.55301000  1.0
  H  H488  1  0.00940000  0.60442000  0.56081000  1.0
  H  H489  1  0.08038000  0.51055000  0.53442000  1.0
  H  H490  1  0.78660000  0.46822000  0.47323000  1.0
  H  H491  1  0.81010000  0.51518000  0.46635000  1.0
  H  H492  1  0.91972000  0.48255000  0.43903000  1.0
  H  H493  1  0.95598000  0.50672000  0.46347000  1.0
  H  H494  1  0.09776000  0.41835000  0.49689000  1.0
  H  H495  1  0.07028000  0.45879000  0.45060000  1.0
  H  H496  1  0.08626000  0.50445000  0.47747000  1.0
  H  H497  1  0.18014000  0.47624000  0.48020000  1.0
  H  H498  1  0.16878000  0.43550000  0.54949000  1.0
  H  H499  1  0.05572000  0.44401000  0.55218000  1.0
  H  H500  1  0.68792000  0.45434000  0.52179000  1.0
  H  H501  1  0.71158000  0.44615000  0.56829000  1.0
  H  H502  1  0.68610000  0.52718000  0.49278000  1.0
  H  H503  1  0.72164000  0.52293000  0.53688000  1.0
  H  H504  1  0.86148000  0.41070000  0.49615000  1.0
  H  H505  1  0.95700000  0.40575000  0.47177000  1.0
  H  H506  1  0.02636000  0.36701000  0.53845000  1.0
  H  H507  1  0.93562000  0.34509000  0.53260000  1.0
  H  H508  1  0.55002000  0.01552000  0.53141000  1.0
  H  H509  1  0.80760000  0.05082000  0.61609000  1.0
  H  H510  1  0.78578000  0.00551000  0.61864000  1.0
  H  H511  1  0.66298000  0.04111000  0.63739000  1.0
  H  H512  1  0.64214000  0.01904000  0.60888000  1.0
  H  H513  1  0.51386000  0.11213000  0.56325000  1.0
  H  H514  1  0.52102000  0.07286000  0.61247000  1.0
  H  H515  1  0.51832000  0.02478000  0.58770000  1.0
  H  H516  1  0.42786000  0.05693000  0.57531000  1.0
  H  H517  1  0.47070000  0.09468000  0.50741000  1.0
  H  H518  1  0.58084000  0.08021000  0.51597000  1.0
  H  H519  1  0.92606000  0.06197000  0.57768000  1.0
  H  H520  1  0.92312000  0.07498500  0.52819500  1.0
  H  H521  1  0.91504000  0.98907000  0.59787000  1.0
  H  H522  1  0.91870000  0.00307000  0.54686000  1.0
  H  H523  1  0.74244000  0.11142000  0.58590000  1.0
  H  H524  1  0.63924000  0.11850000  0.60368000  1.0
  H  H525  1  0.59464000  0.16325000  0.53427000  1.0
  H  H526  1  0.68902000  0.17872000  0.54519000  1.0
  H  H527  1  0.78636000  0.08391000  0.54534000  1.0
  H  H528  1  0.48438000  0.02989000  0.46637000  1.0
  H  H529  1  0.47702000  0.07897000  0.45650000  1.0
  H  H530  1  0.61074000  0.06349500  0.42731500  1.0
  H  H531  1  0.62902000  0.08453000  0.45704000  1.0
  H  H532  1  0.80158000  0.00919000  0.48584000  1.0
  H  H533  1  0.77220000  0.05357000  0.44280000  1.0
  H  H534  1  0.75058000  0.08745000  0.48179000  1.0
  H  H535  1  0.85262000  0.06311000  0.48901000  1.0
  H  H536  1  0.77806000  0.00399500  0.55353500  1.0
  H  H537  1  0.68994000  0.03664000  0.54399000  1.0
  H  H538  1  0.41456000  0.99206000  0.52507000  1.0
  H  H539  1  0.41674000  0.00007000  0.56529000  1.0
  H  H540  1  0.33904000  0.05883000  0.48489000  1.0
  H  H541  1  0.34006000  0.06539000  0.52629000  1.0
  H  H542  1  0.58586000  0.98878000  0.46804000  1.0
  H  H543  1  0.69492000  0.99304000  0.45051000  1.0
  H  H544  1  0.74264000  0.94923000  0.51986000  1.0
  H  H545  1  0.66772000  0.92679500  0.50504000  1.0
  N  N546  1  0.06246000  0.20675000  0.36011000  1.0
  N  N547  1  0.98772000  0.28627000  0.31279000  1.0
  N  N548  1  0.96398000  0.28741000  0.19898000  1.0
  N  N549  1  0.04438000  0.20857000  0.24639000  1.0
  N  N550  1  0.78306000  0.47869000  0.86394000  1.0
  N  N551  1  0.80224000  0.44981000  0.80585000  1.0
  N  N552  1  0.58348000  0.51452000  0.73128000  1.0
  N  N553  1  0.53948000  0.53072000  0.79552000  1.0
  N  N554  1  0.28712000  0.19229000  0.55197000  1.0
  N  N555  1  0.45234000  0.23293000  0.54196000  1.0
  N  N556  1  0.35018000  0.31719000  0.57858000  1.0
  N  N557  1  0.19286000  0.26877000  0.59800000  1.0
  N  N558  1  0.90612000  0.70357000  0.84565000  1.0
  N  N559  1  0.99084000  0.74615000  0.76649000  1.0
  N  N560  1  0.04106000  0.86000000  0.76180000  1.0
  N  N561  1  0.95484000  0.81648000  0.84131000  1.0
  N  N562  1  0.67902000  0.52174000  0.21623000  1.0
  N  N563  1  0.51698000  0.52398000  0.25770000  1.0
  N  N564  1  0.65432000  0.54432000  0.34393000  1.0
  N  N565  1  0.80554000  0.55844000  0.29006000  1.0
  N  N566  1  0.42562000  0.70498000  0.51932000  1.0
  N  N567  1  0.50146000  0.75430000  0.54605000  1.0
  N  N568  1  0.26366000  0.82904000  0.52981000  1.0
  N  N569  1  0.18754000  0.77358500  0.51044000  1.0
  N  N570  1  0.49658000  0.54933000  0.04243000  1.0
  N  N571  1  0.33482000  0.57701000  0.06433000  1.0
  N  N572  1  0.19220000  0.52245000  0.01447000  1.0
  N  N573  1  0.34984000  0.50199000  0.98250000  1.0
  N  N574  1  0.13214000  0.49077000  0.54586000  1.0
  N  N575  1  0.98942000  0.50721000  0.58683000  1.0
  N  N576  1  0.81792000  0.46796000  0.52588000  1.0
  N  N577  1  0.97052000  0.44375000  0.49571000  1.0
  N  N578  1  0.80288000  0.05409000  0.56016000  1.0
  N  N579  1  0.63770000  0.08225000  0.57705000  1.0
  N  N580  1  0.50212000  0.03667000  0.51665000  1.0
  N  N581  1  0.66562000  0.02343000  0.48259000  1.0
  O  O582  1  0.91702000  0.53950000  0.93465000  1.0
  O  O583  1  0.88770000  0.38954000  0.16339000  1.0
  O  O584  1  0.86934000  0.41720000  0.09807000  1.0
  O  O585  1  0.79972000  0.59011000  0.92862000  1.0
  O  O586  1  0.80374000  0.50225000  0.11020000  1.0
  O  O587  1  0.89218000  0.50027000  0.01185000  1.0
  O  O588  1  0.93514000  0.48740000  0.07248000  1.0
  O  O589  1  0.74944000  0.54418000  0.00308000  1.0
  O  O590  1  0.77110000  0.48209000  0.05567000  1.0
  O  O591  1  0.89614000  0.58181000  0.97233000  1.0
  O  O592  1  0.78736000  0.51159000  0.95543000  1.0
  O  O593  1  0.85078000  0.46307000  0.17159000  1.0
  O  O594  1  0.54954000  0.43118000  0.51447000  1.0
  O  O595  1  0.59586000  0.55784000  0.60624000  1.0
  O  O596  1  0.48120000  0.52125000  0.61107000  1.0
  O  O597  1  0.45130000  0.48032000  0.46114000  1.0
  O  O598  1  0.44804000  0.58767000  0.50431000  1.0
  O  O599  1  0.54258000  0.47746000  0.54721000  1.0
  O  O600  1  0.56894000  0.53648000  0.54466000  1.0
  O  O601  1  0.42708000  0.51956000  0.49991000  1.0
  O  O602  1  0.38804000  0.51825000  0.55763000  1.0
  O  O603  1  0.56774000  0.50955000  0.46506000  1.0
  O  O604  1  0.42218000  0.43667000  0.53970000  1.0
  O  O605  1  0.40774000  0.64574000  0.45267000  1.0
  O  O606  1  0.17785000  0.11508000  0.47075000  1.0
  O  O607  1  0.30802000  0.90897000  0.57370000  1.0
  O  O608  1  0.18574000  0.94043000  0.54282000  1.0
  O  O609  1  0.09236000  0.11811000  0.52763000  1.0
  O  O610  1  0.13822000  0.95536000  0.62820000  1.0
  O  O611  1  0.18530000  0.03737000  0.51413000  1.0
  O  O612  1  0.25340000  0.98627000  0.56541000  1.0
  O  O613  1  0.07514000  0.04082000  0.56514000  1.0
  O  O614  1  0.07442000  0.98698500  0.55624500  1.0
  O  O615  1  0.21394000  0.08283000  0.54890000  1.0
  O  O616  1  0.05192000  0.08398000  0.48479000  1.0
  O  O617  1  0.11404000  0.89003000  0.65921000  1.0
  O  O618  1  0.22550000  0.28705000  0.32921000  1.0
  O  O619  1  0.17576000  0.30066000  0.27081000  1.0
  O  O620  1  0.80792000  0.20699000  0.23219000  1.0
  O  O621  1  0.85722000  0.19266000  0.29088000  1.0
  O  O622  1  0.70720000  0.37849000  0.89997000  1.0
  O  O623  1  0.63528000  0.39718000  0.84479000  1.0
  O  O624  1  0.59740000  0.62183000  0.70024000  1.0
  O  O625  1  0.70140000  0.58970000  0.74367000  1.0
  O  O626  1  0.34976000  0.26286000  0.44488000  1.0
  O  O627  1  0.33489000  0.29885000  0.47499000  1.0
  O  O628  1  0.32208000  0.24563000  0.68425000  1.0
  O  O629  1  0.30940000  0.20178000  0.66386000  1.0
  O  O630  1  0.74856000  0.73727000  0.76405000  1.0
  O  O631  1  0.81170000  0.79316000  0.75180000  1.0
  O  O632  1  0.19406000  0.81992000  0.84341000  1.0
  O  O633  1  0.12672000  0.76305000  0.86225000  1.0
  O  O634  1  0.57374000  0.42233000  0.27829000  1.0
  O  O635  1  0.61256000  0.44338000  0.31903000  1.0
  O  O636  1  0.69518000  0.64859000  0.27445000  1.0
  O  O637  1  0.70782000  0.63375000  0.22593000  1.0
  O  O638  1  0.57286000  0.77726000  0.44740000  1.0
  O  O639  1  0.48668000  0.82175000  0.45318000  1.0
  O  O640  1  0.13504000  0.75239000  0.61161000  1.0
  O  O641  1  0.20696000  0.70961000  0.59766000  1.0
  O  O642  1  0.46300000  0.65769000  0.98587000  1.0
  O  O643  1  0.33142000  0.64192000  0.97628000  1.0
  O  O644  1  0.22774000  0.41449000  0.05610000  1.0
  O  O645  1  0.34506000  0.43645000  0.07052000  1.0
  O  O646  1  0.10426000  0.59954000  0.51381000  1.0
  O  O647  1  0.98562000  0.57710000  0.50085000  1.0
  O  O648  1  0.83998000  0.35702000  0.57514000  1.0
  O  O649  1  0.96098000  0.37863000  0.58726000  1.0
  O  O650  1  0.78588000  0.16210000  0.50635000  1.0
  O  O651  1  0.66228000  0.14831000  0.48811000  1.0
  O  O652  1  0.54541000  0.93237000  0.54249000  1.0
  O  O653  1  0.64966000  0.94862000  0.56953000  1.0
