# generated using pymatgen
data_Tb2H33C24(NO4)3
_symmetry_space_group_name_H-M   'P 1'
_cell_length_a   14.18525000
_cell_length_b   38.95381120
_cell_length_c   38.95440000
_cell_angle_alpha   119.99950000
_cell_angle_beta   90.00000000
_cell_angle_gamma   90.00000000
_symmetry_Int_Tables_number   1
_chemical_formula_structural   Tb2H33C24(NO4)3
_chemical_formula_sum   'Tb12 H198 C144 N18 O72'
_cell_volume   18641.30398031
_cell_formula_units_Z   6
loop_
 _symmetry_equiv_pos_site_id
 _symmetry_equiv_pos_as_xyz
  1  'x, y, z'
loop_
 _atom_site_type_symbol
 _atom_site_label
 _atom_site_symmetry_multiplicity
 _atom_site_fract_x
 _atom_site_fract_y
 _atom_site_fract_z
 _atom_site_occupancy
  C  C0  1  0.58408000  0.78576000  0.45132000  1.0
  C  C1  1  0.73114000  0.68107000  0.34842000  1.0
  C  C2  1  0.75712000  0.82199000  0.39901000  1.0
  C  C3  1  0.11206000  0.81190000  0.47279000  1.0
  C  C4  1  0.97434000  0.89844000  0.47193000  1.0
  C  C5  1  0.95682000  0.73442000  0.38667000  1.0
  C  C6  1  0.34282000  0.40865000  0.63074000  1.0
  C  C7  1  0.59064000  0.32024000  0.58220000  1.0
  C  C8  1  0.54948000  0.42536000  0.55317000  1.0
  C  C9  1  0.91116000  0.46036000  0.62886000  1.0
  C  C10  1  0.77346000  0.48829000  0.57757000  1.0
  C  C11  1  0.67570000  0.41793000  0.64011000  1.0
  C  C12  1  0.27792000  0.49817000  0.11592000  1.0
  C  C13  1  0.43436000  0.49206000  0.20808000  1.0
  C  C14  1  0.48458000  0.43243000  0.07083000  1.0
  C  C15  1  0.84774000  0.43382000  0.06048000  1.0
  C  C16  1  0.70432000  0.50443000  0.04272000  1.0
  C  C17  1  0.66248000  0.51442000  0.17162000  1.0
  C  C18  1  0.11876000  0.09535000  0.47679000  1.0
  C  C19  1  0.22922000  0.19982000  0.59281000  1.0
  C  C20  1  0.25932000  0.06031000  0.53814000  1.0
  C  C21  1  0.64604000  0.07537000  0.48749000  1.0
  C  C22  1  0.48434000  0.98615000  0.46381000  1.0
  C  C23  1  0.46484000  0.14821000  0.56659000  1.0
  C  C24  1  0.80120000  0.52185000  0.39766000  1.0
  C  C25  1  0.99552000  0.54542000  0.34951000  1.0
  C  C26  1  0.02710000  0.51542000  0.45804000  1.0
  C  C27  1  0.37796000  0.59249000  0.45895000  1.0
  C  C28  1  0.28828000  0.50812000  0.47048000  1.0
  C  C29  1  0.18758000  0.50389000  0.35806000  1.0
  C  C30  1  0.75316000  0.31850000  0.80527000  1.0
  C  C31  1  0.85022000  0.39807000  0.78434000  1.0
  C  C32  1  0.98752000  0.40604000  0.89159000  1.0
  C  C33  1  0.28948000  0.32250000  0.81168000  1.0
  C  C34  1  0.23686000  0.40030000  0.91371000  1.0
  C  C35  1  0.09944000  0.35647000  0.76649000  1.0
  C  C36  1  0.63780000  0.53097000  0.21451000  1.0
  C  C37  1  0.68660000  0.56941000  0.28235000  1.0
  C  C38  1  0.73506000  0.60659000  0.31496000  1.0
  C  C39  1  0.67544000  0.60056000  0.24031000  1.0
  C  C40  1  0.72364000  0.63794000  0.27311000  1.0
  C  C41  1  0.69862000  0.64273000  0.31355000  1.0
  C  C42  1  0.64754000  0.28657000  0.57959000  1.0
  C  C43  1  0.51492000  0.25866000  0.59873000  1.0
  C  C44  1  0.45572000  0.22120000  0.58679000  1.0
  C  C45  1  0.65310000  0.21890000  0.56542000  1.0
  C  C46  1  0.59862000  0.18049000  0.55258000  1.0
  C  C47  1  0.51818000  0.18673000  0.58156000  1.0
  C  C48  1  0.20146000  0.47213000  0.31596000  1.0
  C  C49  1  0.24090000  0.45551000  0.24967000  1.0
  C  C50  1  0.28832000  0.46874000  0.22322000  1.0
  C  C51  1  0.35370000  0.49290000  0.30263000  1.0
  C  C52  1  0.40386000  0.50816000  0.27799000  1.0
  C  C53  1  0.39330000  0.47769000  0.23385000  1.0
  C  C54  1  0.06598000  0.33744000  0.72441000  1.0
  C  C55  1  0.11136000  0.30187000  0.65564000  1.0
  C  C56  1  0.17698000  0.27146000  0.62353000  1.0
  C  C57  1  0.15060000  0.27499000  0.69960000  1.0
  C  C58  1  0.21606000  0.24423000  0.66757000  1.0
  C  C59  1  0.17862000  0.23385000  0.62663000  1.0
  C  C60  1  0.03774000  0.57012000  0.33354000  1.0
  C  C61  1  0.02800000  0.62448000  0.32111000  1.0
  C  C62  1  0.98462000  0.66457000  0.33150000  1.0
  C  C63  1  0.00044000  0.63675000  0.38835000  1.0
  C  C64  1  0.95464000  0.67688000  0.40013000  1.0
  C  C65  1  0.99646000  0.69422000  0.37570000  1.0
  C  C66  1  0.63254000  0.42803000  0.67908000  1.0
  C  C67  1  0.63826000  0.41009000  0.73042000  1.0
  C  C68  1  0.70002000  0.39246000  0.74986000  1.0
  C  C69  1  0.77426000  0.44178000  0.71982000  1.0
  C  C70  1  0.84160000  0.42402000  0.73742000  1.0
  C  C71  1  0.78892000  0.41780000  0.76822000  1.0
  C  C72  1  0.96792000  0.94264000  0.49209000  1.0
  C  C73  1  0.04028000  0.00356000  0.54083000  1.0
  C  C74  1  0.12974000  0.02841000  0.55736000  1.0
  C  C75  1  0.12236000  0.96074000  0.47706000  1.0
  C  C76  1  0.21218000  0.98657000  0.49352000  1.0
  C  C77  1  0.18288000  0.02903000  0.52348000  1.0
  C  C78  1  0.78694000  0.52688000  0.57834000  1.0
  C  C79  1  0.94956000  0.51497000  0.55261000  1.0
  C  C80  1  0.00632000  0.50330000  0.51483000  1.0
  C  C81  1  0.84800000  0.55874000  0.54285000  1.0
  C  C82  1  0.89772000  0.55037000  0.50469000  1.0
  C  C83  1  0.99964000  0.53442000  0.50111000  1.0
  C  C84  1  0.74028000  0.51744000  0.01464000  1.0
  C  C85  1  0.88550000  0.47750000  0.99589000  1.0
  C  C86  1  0.93246000  0.44007000  0.96258000  1.0
  C  C87  1  0.81454000  0.49408000  0.94984000  1.0
  C  C88  1  0.86180000  0.45837000  0.91447000  1.0
  C  C89  1  0.95222000  0.44450000  0.92635000  1.0
  C  C90  1  0.47852000  0.94227000  0.43675000  1.0
  C  C91  1  0.55980000  0.88366000  0.38853000  1.0
  C  C92  1  0.64950000  0.85840000  0.37602000  1.0
  C  C93  1  0.61998000  0.92135000  0.45783000  1.0
  C  C94  1  0.70942000  0.89517000  0.44495000  1.0
  C  C95  1  0.68370000  0.85406000  0.41082000  1.0
  C  C96  1  0.57206000  0.44746000  0.53207000  1.0
  C  C97  1  0.51816000  0.46174000  0.48173000  1.0
  C  C98  1  0.43346000  0.46662000  0.46030000  1.0
  C  C99  1  0.42356000  0.48351000  0.54183000  1.0
  C  C100  1  0.33612000  0.48889000  0.52156000  1.0
  C  C101  1  0.36804000  0.49928000  0.49034000  1.0
  C  C102  1  0.49030000  0.39787000  0.02897000  1.0
  C  C103  1  0.36794000  0.43271000  0.01198000  1.0
  C  C104  1  0.32208000  0.43844000  0.97945000  1.0
  C  C105  1  0.42826000  0.36737000  0.96176000  1.0
  C  C106  1  0.37922000  0.37228000  0.92920000  1.0
  C  C107  1  0.29068000  0.39817000  0.94588000  1.0
  C  C108  1  0.19212000  0.81101000  0.49766000  1.0
  C  C109  1  0.34196000  0.77853000  0.49225000  1.0
  C  C110  1  0.43678000  0.76475000  0.47063000  1.0
  C  C111  1  0.33442000  0.83304000  0.47837000  1.0
  C  C112  1  0.42982000  0.82058000  0.45653000  1.0
  C  C113  1  0.49184000  0.79995000  0.47333000  1.0
  C  C114  1  0.98346000  0.48098000  0.66026000  1.0
  C  C115  1  0.07542000  0.42275000  0.64866000  1.0
  C  C116  1  0.16686000  0.40068000  0.62952000  1.0
  C  C117  1  0.14908000  0.48706000  0.67559000  1.0
  C  C118  1  0.24482000  0.46882000  0.65934000  1.0
  C  C119  1  0.25246000  0.42613000  0.65225000  1.0
  C  C120  1  0.93896000  0.41521000  0.04210000  1.0
  C  C121  1  0.03238000  0.47748000  0.06760000  1.0
  C  C122  1  0.10856000  0.50197000  0.09818000  1.0
  C  C123  1  0.10590000  0.41507000  0.05174000  1.0
  C  C124  1  0.18324000  0.43668000  0.08133000  1.0
  C  C125  1  0.20046000  0.47839000  0.08638000  1.0
  C  C126  1  0.04012000  0.07429000  0.44787000  1.0
  C  C127  1  0.89450000  0.03885000  0.44274000  1.0
  C  C128  1  0.79948000  0.03899000  0.46176000  1.0
  C  C129  1  0.89402000  0.11133000  0.47615000  1.0
  C  C130  1  0.79822000  0.11275000  0.49551000  1.0
  C  C131  1  0.74048000  0.07516000  0.46923000  1.0
  C  C132  1  0.46806000  0.61636000  0.47084000  1.0
  C  C133  1  0.57108000  0.58159000  0.41110000  1.0
  C  C134  1  0.67418000  0.56844000  0.39947000  1.0
  C  C135  1  0.57476000  0.56149000  0.46167000  1.0
  C  C136  1  0.67764000  0.54767000  0.45136000  1.0
  C  C137  1  0.69954000  0.53485000  0.40781000  1.0
  C  C138  1  0.35570000  0.28857000  0.79931000  1.0
  C  C139  1  0.49648000  0.29887000  0.76947000  1.0
  C  C140  1  0.59426000  0.31796000  0.77815000  1.0
  C  C141  1  0.51252000  0.28453000  0.82367000  1.0
  C  C142  1  0.61104000  0.30325000  0.83375000  1.0
  C  C143  1  0.65782000  0.29937000  0.79642000  1.0
  H  H144  1  0.56412000  0.54150000  0.21912000  1.0
  H  H145  1  0.64344000  0.50602000  0.22066000  1.0
  H  H146  1  0.62038000  0.64316000  0.31633000  1.0
  H  H147  1  0.61026000  0.57087000  0.28989000  1.0
  H  H148  1  0.71722000  0.54344000  0.28297000  1.0
  H  H149  1  0.69830000  0.59664000  0.21128000  1.0
  H  H150  1  0.59792000  0.60595000  0.24284000  1.0
  H  H151  1  0.81266000  0.60363000  0.31060000  1.0
  H  H152  1  0.71874000  0.60938000  0.34417000  1.0
  H  H153  1  0.69830000  0.66405000  0.27140000  1.0
  H  H154  1  0.80122000  0.63555000  0.26837000  1.0
  H  H155  1  0.70192000  0.27899000  0.55632000  1.0
  H  H156  1  0.68354000  0.29693000  0.60856000  1.0
  H  H157  1  0.54966000  0.19468000  0.61080000  1.0
  H  H158  1  0.54574000  0.26955000  0.62875000  1.0
  H  H159  1  0.46570000  0.28169000  0.60055000  1.0
  H  H160  1  0.70780000  0.21256000  0.54254000  1.0
  H  H161  1  0.68994000  0.22782000  0.59396000  1.0
  H  H162  1  0.41696000  0.21295000  0.55889000  1.0
  H  H163  1  0.40410000  0.22827000  0.61079000  1.0
  H  H164  1  0.64810000  0.15806000  0.55182000  1.0
  H  H165  1  0.57062000  0.16942000  0.52212000  1.0
  H  H166  1  0.23908000  0.44693000  0.31574000  1.0
  H  H167  1  0.13070000  0.46029000  0.30342000  1.0
  H  H168  1  0.43002000  0.44983000  0.22744000  1.0
  H  H169  1  0.27082000  0.42647000  0.24341000  1.0
  H  H170  1  0.16478000  0.45108000  0.24166000  1.0
  H  H171  1  0.36300000  0.51565000  0.33426000  1.0
  H  H172  1  0.38874000  0.46529000  0.29799000  1.0
  H  H173  1  0.25094000  0.49552000  0.22688000  1.0
  H  H174  1  0.28088000  0.44485000  0.19178000  1.0
  H  H175  1  0.47984000  0.51279000  0.28607000  1.0
  H  H176  1  0.37278000  0.53713000  0.28479000  1.0
  H  H177  1  0.00098000  0.31998000  0.72054000  1.0
  H  H178  1  0.04930000  0.36196000  0.71853000  1.0
  H  H179  1  0.10460000  0.22331000  0.62425000  1.0
  H  H180  1  0.03766000  0.29040000  0.64884000  1.0
  H  H181  1  0.11398000  0.32941000  0.65380000  1.0
  H  H182  1  0.18186000  0.28325000  0.72889000  1.0
  H  H183  1  0.08118000  0.26068000  0.69756000  1.0
  H  H184  1  0.24918000  0.28402000  0.62723000  1.0
  H  H185  1  0.14978000  0.26475000  0.59405000  1.0
  H  H186  1  0.21762000  0.21735000  0.67063000  1.0
  H  H187  1  0.28894000  0.25626000  0.67190000  1.0
  H  H188  1  0.11292000  0.57576000  0.34297000  1.0
  H  H189  1  0.03792000  0.55121000  0.30066000  1.0
  H  H190  1  0.07354000  0.69859000  0.38185000  1.0
  H  H191  1  0.10602000  0.62801000  0.32475000  1.0
  H  H192  1  0.01314000  0.60370000  0.28921000  1.0
  H  H193  1  0.96490000  0.62543000  0.40604000  1.0
  H  H194  1  0.07640000  0.64131000  0.39674000  1.0
  H  H195  1  0.90934000  0.66029000  0.32326000  1.0
  H  H196  1  0.02012000  0.67593000  0.31371000  1.0
  H  H197  1  0.96758000  0.69751000  0.43220000  1.0
  H  H198  1  0.87738000  0.67280000  0.39541000  1.0
  H  H199  1  0.62082000  0.46063000  0.69644000  1.0
  H  H200  1  0.56100000  0.41484000  0.67377000  1.0
  H  H201  1  0.76716000  0.44720000  0.79325000  1.0
  H  H202  1  0.60882000  0.43909000  0.75345000  1.0
  H  H203  1  0.57842000  0.38934000  0.71575000  1.0
  H  H204  1  0.81462000  0.44631000  0.69803000  1.0
  H  H205  1  0.74978000  0.47151000  0.74343000  1.0
  H  H206  1  0.71970000  0.36166000  0.72708000  1.0
  H  H207  1  0.65850000  0.39109000  0.77332000  1.0
  H  H208  1  0.90184000  0.44458000  0.75170000  1.0
  H  H209  1  0.86966000  0.39538000  0.71324000  1.0
  H  H210  1  0.93986000  0.95118000  0.47071000  1.0
  H  H211  1  0.91448000  0.95170000  0.51605000  1.0
  H  H212  1  0.13206000  0.03854000  0.50797000  1.0
  H  H213  1  0.99206000  0.01889000  0.53016000  1.0
  H  H214  1  0.00464000  0.00268000  0.56581000  1.0
  H  H215  1  0.14524000  0.92964000  0.45726000  1.0
  H  H216  1  0.08362000  0.97051000  0.45854000  1.0
  H  H217  1  0.17480000  0.01591000  0.57184000  1.0
  H  H218  1  0.10844000  0.05885000  0.58027000  1.0
  H  H219  1  0.25130000  0.98609000  0.46857000  1.0
  H  H220  1  0.25896000  0.97429000  0.50768000  1.0
  H  H221  1  0.71582000  0.53629000  0.57425000  1.0
  H  H222  1  0.81282000  0.54982000  0.60805000  1.0
  H  H223  1  0.04730000  0.55976000  0.51942000  1.0
  H  H224  1  0.98214000  0.54124000  0.57839000  1.0
  H  H225  1  0.95344000  0.48988000  0.55851000  1.0
  H  H226  1  0.77380000  0.56692000  0.54091000  1.0
  H  H227  1  0.88136000  0.58453000  0.56885000  1.0
  H  H228  1  0.97916000  0.47404000  0.49148000  1.0
  H  H229  1  0.08148000  0.49919000  0.52003000  1.0
  H  H230  1  0.89912000  0.57795000  0.50286000  1.0
  H  H231  1  0.85350000  0.52841000  0.47979000  1.0
  H  H232  1  0.67736000  0.52433000  0.00216000  1.0
  H  H233  1  0.78316000  0.54490000  0.03103000  1.0
  H  H234  1  0.00748000  0.46750000  0.93406000  1.0
  H  H235  1  0.93422000  0.50330000  0.00669000  1.0
  H  H236  1  0.87208000  0.47225000  0.02072000  1.0
  H  H237  1  0.74724000  0.50014000  0.93919000  1.0
  H  H238  1  0.86022000  0.52078000  0.96056000  1.0
  H  H239  1  0.88510000  0.41434000  0.95444000  1.0
  H  H240  1  0.00040000  0.43462000  0.97316000  1.0
  H  H241  1  0.88000000  0.46708000  0.89214000  1.0
  H  H242  1  0.80978000  0.43370000  0.90101000  1.0
  H  H243  1  0.43734000  0.92914000  0.45171000  1.0
  H  H244  1  0.43746000  0.93744000  0.41032000  1.0
  H  H245  1  0.62284000  0.84338000  0.42113000  1.0
  H  H246  1  0.50268000  0.86672000  0.39320000  1.0
  H  H247  1  0.53826000  0.88775000  0.36335000  1.0
  H  H248  1  0.64156000  0.95169000  0.48078000  1.0
  H  H249  1  0.57066000  0.90991000  0.47205000  1.0
  H  H250  1  0.70464000  0.87243000  0.36675000  1.0
  H  H251  1  0.63240000  0.82892000  0.35015000  1.0
  H  H252  1  0.73598000  0.89295000  0.47061000  1.0
  H  H253  1  0.76548000  0.90890000  0.43577000  1.0
  H  H254  1  0.60210000  0.47673000  0.55343000  1.0
  H  H255  1  0.62706000  0.42995000  0.50981000  1.0
  H  H256  1  0.40944000  0.52731000  0.50597000  1.0
  H  H257  1  0.56176000  0.48925000  0.49494000  1.0
  H  H258  1  0.56182000  0.43705000  0.45913000  1.0
  H  H259  1  0.39848000  0.47524000  0.56372000  1.0
  H  H260  1  0.46108000  0.51242000  0.55863000  1.0
  H  H261  1  0.39472000  0.43802000  0.44406000  1.0
  H  H262  1  0.46000000  0.47451000  0.43829000  1.0
  H  H263  1  0.29178000  0.51316000  0.54427000  1.0
  H  H264  1  0.29376000  0.46114000  0.50756000  1.0
  H  H265  1  0.56588000  0.39011000  0.02201000  1.0
  H  H266  1  0.45398000  0.37245000  0.02881000  1.0
  H  H267  1  0.24294000  0.38391000  0.95782000  1.0
  H  H268  1  0.31452000  0.42037000  0.02335000  1.0
  H  H269  1  0.38950000  0.46260000  0.03578000  1.0
  H  H270  1  0.49462000  0.35047000  0.94922000  1.0
  H  H271  1  0.38136000  0.34907000  0.96922000  1.0
  H  H272  1  0.37300000  0.45269000  0.96869000  1.0
  H  H273  1  0.25984000  0.45823000  0.99187000  1.0
  H  H274  1  0.35926000  0.34247000  0.90452000  1.0
  H  H275  1  0.42928000  0.38568000  0.91720000  1.0
  H  H276  1  0.19752000  0.84059000  0.52494000  1.0
  H  H277  1  0.16980000  0.79048000  0.50825000  1.0
  H  H278  1  0.50780000  0.82120000  0.50503000  1.0
  H  H279  1  0.35478000  0.79849000  0.52456000  1.0
  H  H280  1  0.30456000  0.75173000  0.48841000  1.0
  H  H281  1  0.29132000  0.84666000  0.46448000  1.0
  H  H282  1  0.34714000  0.85617000  0.50983000  1.0
  H  H283  1  0.42374000  0.74206000  0.43908000  1.0
  H  H284  1  0.47850000  0.75063000  0.48441000  1.0
  H  H285  1  0.46658000  0.84739000  0.46015000  1.0
  H  H286  1  0.41678000  0.80044000  0.42433000  1.0
  H  H287  1  0.98860000  0.51166000  0.66530000  1.0
  H  H288  1  0.95762000  0.48370000  0.68851000  1.0
  H  H289  1  0.25648000  0.42783000  0.68159000  1.0
  H  H290  1  0.06876000  0.42754000  0.67927000  1.0
  H  H291  1  0.01596000  0.40345000  0.63114000  1.0
  H  H292  1  0.14722000  0.51640000  0.67721000  1.0
  H  H293  1  0.14000000  0.49211000  0.70620000  1.0
  H  H294  1  0.16860000  0.39388000  0.59816000  1.0
  H  H295  1  0.16846000  0.37224000  0.62964000  1.0
  H  H296  1  0.29976000  0.48799000  0.68074000  1.0
  H  H297  1  0.25610000  0.46872000  0.63097000  1.0
  H  H298  1  0.93854000  0.38541000  0.03944000  1.0
  H  H299  1  0.94260000  0.40972000  0.01144000  1.0
  H  H300  1  0.22292000  0.47587000  0.05802000  1.0
  H  H301  1  0.05310000  0.47294000  0.03809000  1.0
  H  H302  1  0.96768000  0.49566000  0.07668000  1.0
  H  H303  1  0.09656000  0.38579000  0.04984000  1.0
  H  H304  1  0.12622000  0.40980000  0.02183000  1.0
  H  H305  1  0.08570000  0.50844000  0.12817000  1.0
  H  H306  1  0.11878000  0.53054000  0.09874000  1.0
  H  H307  1  0.24794000  0.41826000  0.07202000  1.0
  H  H308  1  0.16114000  0.43961000  0.11015000  1.0
  H  H309  1  0.03336000  0.08665000  0.42767000  1.0
  H  H310  1  0.06492000  0.04329000  0.42856000  1.0
  H  H311  1  0.72662000  0.07371000  0.44040000  1.0
  H  H312  1  0.88198000  0.03485000  0.41270000  1.0
  H  H313  1  0.93508000  0.01278000  0.43908000  1.0
  H  H314  1  0.93436000  0.13835000  0.49683000  1.0
  H  H315  1  0.88126000  0.11237000  0.44846000  1.0
  H  H316  1  0.81252000  0.03921000  0.49005000  1.0
  H  H317  1  0.76066000  0.01133000  0.44152000  1.0
  H  H318  1  0.75902000  0.13910000  0.49934000  1.0
  H  H319  1  0.81004000  0.11608000  0.52527000  1.0
  H  H320  1  0.46082000  0.64041000  0.46355000  1.0
  H  H321  1  0.47384000  0.63198000  0.50367000  1.0
  H  H322  1  0.65444000  0.50877000  0.38866000  1.0
  H  H323  1  0.52268000  0.55698000  0.39165000  1.0
  H  H324  1  0.55722000  0.60691000  0.40620000  1.0
  H  H325  1  0.56340000  0.57213000  0.49368000  1.0
  H  H326  1  0.52674000  0.53600000  0.44433000  1.0
  H  H327  1  0.72156000  0.59431000  0.41650000  1.0
  H  H328  1  0.68364000  0.55797000  0.36740000  1.0
  H  H329  1  0.68930000  0.52233000  0.45642000  1.0
  H  H330  1  0.72518000  0.57231000  0.47146000  1.0
  H  H331  1  0.33742000  0.27374000  0.81654000  1.0
  H  H332  1  0.34194000  0.26616000  0.76772000  1.0
  H  H333  1  0.66710000  0.26736000  0.77430000  1.0
  H  H334  1  0.50208000  0.26701000  0.74625000  1.0
  H  H335  1  0.45168000  0.31397000  0.75757000  1.0
  H  H336  1  0.47980000  0.28944000  0.85173000  1.0
  H  H337  1  0.51824000  0.25198000  0.80310000  1.0
  H  H338  1  0.58692000  0.35040000  0.79884000  1.0
  H  H339  1  0.62570000  0.31340000  0.75002000  1.0
  H  H340  1  0.65464000  0.28791000  0.84572000  1.0
  H  H341  1  0.60476000  0.33501000  0.85706000  1.0
  N  N342  1  0.69918000  0.56423000  0.24206000  1.0
  N  N343  1  0.59000000  0.25087000  0.56922000  1.0
  N  N344  1  0.25228000  0.48578000  0.29194000  1.0
  N  N345  1  0.13880000  0.31113000  0.69619000  1.0
  N  N346  1  0.98888000  0.60816000  0.34543000  1.0
  N  N347  1  0.69334000  0.41471000  0.70085000  1.0
  N  N348  1  0.05982000  0.96245000  0.50866000  1.0
  N  N349  1  0.85088000  0.52296000  0.54664000  1.0
  N  N350  1  0.79560000  0.48535000  0.98195000  1.0
  N  N351  1  0.57272000  0.92314000  0.42455000  1.0
  N  N352  1  0.48776000  0.45251000  0.51255000  1.0
  N  N353  1  0.45056000  0.40579000  0.99791000  1.0
  N  N354  1  0.28346000  0.79868000  0.47605000  1.0
  N  N355  1  0.07506000  0.46085000  0.64887000  1.0
  N  N356  1  0.01946000  0.43884000  0.06609000  1.0
  N  N357  1  0.94918000  0.07557000  0.46759000  1.0
  N  N358  1  0.55590000  0.59371000  0.45314000  1.0
  N  N359  1  0.45400000  0.30311000  0.80602000  1.0
  O  O360  1  0.72576000  0.78687000  0.37478000  1.0
  O  O361  1  0.79966000  0.81783000  0.42614000  1.0
  O  O362  1  0.02386000  0.81289000  0.48205000  1.0
  O  O363  1  0.11896000  0.81360000  0.44051000  1.0
  O  O364  1  0.93440000  0.87716000  0.48500000  1.0
  O  O365  1  0.99876000  0.75753000  0.37638000  1.0
  O  O366  1  0.90750000  0.75609000  0.41842000  1.0
  O  O367  1  0.00376000  0.87585000  0.43590000  1.0
  O  O368  1  0.59072000  0.76490000  0.41267000  1.0
  O  O369  1  0.66684000  0.79055000  0.46836000  1.0
  O  O370  1  0.76836000  0.71056000  0.34594000  1.0
  O  O371  1  0.70698000  0.69196000  0.38491000  1.0
  O  O372  1  0.46644000  0.40951000  0.55075000  1.0
  O  O373  1  0.60674000  0.41945000  0.57685000  1.0
  O  O374  1  0.82280000  0.47191000  0.63458000  1.0
  O  O375  1  0.92410000  0.42785000  0.59438000  1.0
  O  O376  1  0.75994000  0.48594000  0.60957000  1.0
  O  O377  1  0.76140000  0.40558000  0.62964000  1.0
  O  O378  1  0.63326000  0.42193000  0.61259000  1.0
  O  O379  1  0.77874000  0.45291000  0.54613000  1.0
  O  O380  1  0.35414000  0.37133000  0.60150000  1.0
  O  O381  1  0.41708000  0.43156000  0.63740000  1.0
  O  O382  1  0.57670000  0.32672000  0.55229000  1.0
  O  O383  1  0.55742000  0.34875000  0.61612000  1.0
  O  O384  1  0.43212000  0.43433000  0.09879000  1.0
  O  O385  1  0.52470000  0.46619000  0.08386000  1.0
  O  O386  1  0.83890000  0.46874000  0.09194000  1.0
  O  O387  1  0.76652000  0.41823000  0.04493000  1.0
  O  O388  1  0.72532000  0.52144000  0.08016000  1.0
  O  O389  1  0.71416000  0.48288000  0.15230000  1.0
  O  O390  1  0.60880000  0.51778000  0.14631000  1.0
  O  O391  1  0.66580000  0.47026000  0.03144000  1.0
  O  O392  1  0.30572000  0.48189000  0.13611000  1.0
  O  O393  1  0.34642000  0.51916000  0.11262000  1.0
  O  O394  1  0.48982000  0.46991000  0.17808000  1.0
  O  O395  1  0.39700000  0.52126000  0.20503000  1.0
  O  O396  1  0.22824000  0.09554000  0.56221000  1.0
  O  O397  1  0.31012000  0.06484000  0.51290000  1.0
  O  O398  1  0.56462000  0.07678000  0.47319000  1.0
  O  O399  1  0.63298000  0.06958000  0.51702000  1.0
  O  O400  1  0.45582000  0.01202000  0.45430000  1.0
  O  O401  1  0.49498000  0.12191000  0.57526000  1.0
  O  O402  1  0.42618000  0.12962000  0.53156000  1.0
  O  O403  1  0.50224000  0.00340000  0.50154000  1.0
  O  O404  1  0.10942000  0.11508000  0.51541000  1.0
  O  O405  1  0.20738000  0.09352000  0.46612000  1.0
  O  O406  1  0.26216000  0.16942000  0.59474000  1.0
  O  O407  1  0.22058000  0.19139000  0.55592000  1.0
  O  O408  1  0.98078000  0.48439000  0.43240000  1.0
  O  O409  1  0.05430000  0.53505000  0.44065000  1.0
  O  O410  1  0.36632000  0.55755000  0.42846000  1.0
  O  O411  1  0.29838000  0.60507000  0.47768000  1.0
  O  O412  1  0.29414000  0.49926000  0.43378000  1.0
  O  O413  1  0.22222000  0.53966000  0.37502000  1.0
  O  O414  1  0.14768000  0.49686000  0.38379000  1.0
  O  O415  1  0.23332000  0.53877000  0.48921000  1.0
  O  O416  1  0.87590000  0.54366000  0.41128000  1.0
  O  O417  1  0.82734000  0.48578000  0.37468000  1.0
  O  O418  1  0.98964000  0.55607000  0.38681000  1.0
  O  O419  1  0.99562000  0.50704000  0.32908000  1.0
  O  O420  1  0.94234000  0.37286000  0.88084000  1.0
  O  O421  1  0.01770000  0.40574000  0.85983000  1.0
  O  O422  1  0.20276000  0.32260000  0.82230000  1.0
  O  O423  1  0.31222000  0.35695000  0.81646000  1.0
  O  O424  1  0.17462000  0.37397000  0.89199000  1.0
  O  O425  1  0.16074000  0.38509000  0.78204000  1.0
  O  O426  1  0.07368000  0.34634000  0.79235000  1.0
  O  O427  1  0.25914000  0.42169000  0.89782000  1.0
  O  O428  1  0.77182000  0.35442000  0.83389000  1.0
  O  O429  1  0.82670000  0.30207000  0.78288000  1.0
  O  O430  1  0.85702000  0.40981000  0.82153000  1.0
  O  O431  1  0.88486000  0.36277000  0.76388000  1.0
  Tb  Tb432  1  0.96028000  0.81684000  0.43023000  1.0
  Tb  Tb433  1  0.74856000  0.75608000  0.41084000  1.0
  Tb  Tb434  1  0.76884000  0.41847000  0.57927000  1.0
  Tb  Tb435  1  0.50062000  0.38444000  0.59014000  1.0
  Tb  Tb436  1  0.68162000  0.47024000  0.08976000  1.0
  Tb  Tb437  1  0.45416000  0.50082000  0.14403000  1.0
  Tb  Tb438  1  0.47082000  0.06650000  0.51554000  1.0
  Tb  Tb439  1  0.26556000  0.12734000  0.52849000  1.0
  Tb  Tb440  1  0.20938000  0.55038000  0.43773000  1.0
  Tb  Tb441  1  0.98798000  0.49389000  0.38001000  1.0
  Tb  Tb442  1  0.17104000  0.38699000  0.84128000  1.0
  Tb  Tb443  1  0.92432000  0.35428000  0.81606000  1.0
