# generated using pymatgen
data_MnCdH42(C5O2)6
_symmetry_space_group_name_H-M   'P 1'
_cell_length_a   9.42706667
_cell_length_b   32.07204562
_cell_length_c   32.07350000
_cell_angle_alpha   119.99850000
_cell_angle_beta   90.00000000
_cell_angle_gamma   90.00000000
_symmetry_Int_Tables_number   1
_chemical_formula_structural   MnCdH42(C5O2)6
_chemical_formula_sum   'Mn6 Cd6 H252 C180 O72'
_cell_volume   8398.21115371
_cell_formula_units_Z   6
loop_
 _symmetry_equiv_pos_site_id
 _symmetry_equiv_pos_as_xyz
  1  'x, y, z'
loop_
 _atom_site_type_symbol
 _atom_site_label
 _atom_site_symmetry_multiplicity
 _atom_site_fract_x
 _atom_site_fract_y
 _atom_site_fract_z
 _atom_site_occupancy
  C  C0  1  0.23672000  0.93831000  0.29182000  1.0
  C  C1  1  0.57427000  0.85292000  0.61464000  1.0
  C  C2  1  0.17738000  0.98283000  0.29174000  1.0
  C  C3  1  0.57525000  0.94557000  0.63597000  1.0
  C  C4  1  0.55332000  0.90647000  0.65099000  1.0
  C  C5  1  0.64163000  0.92427000  0.69711000  1.0
  C  C6  1  0.66472000  0.97866000  0.71838000  1.0
  C  C7  1  0.45291000  0.94434000  0.60305000  1.0
  C  C8  1  0.71751000  0.93684000  0.60829000  1.0
  C  C9  1  0.42952000  0.84716000  0.44105000  1.0
  C  C10  1  0.36743000  0.85112000  0.39915000  1.0
  C  C11  1  0.25031000  0.79446000  0.31923000  1.0
  C  C12  1  0.50250000  0.78023000  0.24141000  1.0
  C  C13  1  0.27889000  0.74007000  0.13461000  1.0
  C  C14  1  0.02637000  0.81112000  0.24810000  1.0
  C  C15  1  0.83973000  0.76579000  0.56460000  1.0
  C  C16  1  0.44107000  0.78193000  0.46392000  1.0
  C  C17  1  0.36643000  0.75716000  0.58390000  1.0
  C  C18  1  0.65093000  0.77461000  0.25539000  1.0
  C  C19  1  0.76947000  0.78192000  0.22541000  1.0
  C  C20  1  0.89636000  0.79319000  0.25993000  1.0
  C  C21  1  0.83725000  0.82772000  0.30986000  1.0
  C  C22  1  0.68185000  0.81462000  0.30793000  1.0
  C  C23  1  0.73868000  0.82534000  0.21748000  1.0
  C  C24  1  0.98514000  0.74585000  0.54683000  1.0
  C  C25  1  0.10822000  0.78009000  0.57713000  1.0
  C  C26  1  0.22770000  0.74249000  0.56017000  1.0
  C  C27  1  0.13748000  0.82121000  0.56621000  1.0
  C  C28  1  0.08340000  0.80396000  0.63248000  1.0
  C  C29  1  0.43618000  0.74133000  0.07025000  1.0
  C  C30  1  0.25643000  0.81016000  0.37318000  1.0
  C  C31  1  0.30364000  0.77157000  0.38767000  1.0
  C  C32  1  0.35560000  0.80444000  0.44038000  1.0
  C  C33  1  0.10887000  0.83181000  0.39439000  1.0
  C  C34  1  0.42675000  0.73948000  0.35594000  1.0
  C  C35  1  0.66242000  0.72453000  0.25289000  1.0
  C  C36  1  0.79367000  0.73737000  0.17490000  1.0
  C  C37  1  0.16692000  0.69857000  0.56034000  1.0
  C  C38  1  0.00926000  0.70046000  0.55191000  1.0
  C  C39  1  0.99380000  0.73006000  0.49173000  1.0
  C  C40  1  0.37860000  0.70837000  0.72118000  1.0
  C  C41  1  0.29380000  0.72602000  0.08163000  1.0
  C  C42  1  0.46063000  0.70943000  0.01560000  1.0
  C  C43  1  0.22170000  0.70346000  0.97782000  1.0
  C  C44  1  0.18249000  0.73783000  0.38558000  1.0
  C  C45  1  0.10557000  0.65426000  0.19686000  1.0
  C  C46  1  0.63148000  0.66770000  0.48606000  1.0
  C  C47  1  0.50392000  0.68500000  0.64164000  1.0
  C  C48  1  0.50161000  0.68081000  0.68690000  1.0
  C  C49  1  0.35502000  0.68553000  0.75319000  1.0
  C  C50  1  0.60464000  0.67429000  0.77262000  1.0
  C  C51  1  0.32776000  0.67714000  0.99429000  1.0
  C  C52  1  0.26942000  0.67352000  0.03903000  1.0
  C  C53  1  0.11051000  0.65969000  0.03494000  1.0
  C  C54  1  0.47279000  0.64740000  0.74011000  1.0
  C  C55  1  0.35719000  0.63654000  0.04633000  1.0
  C  C56  1  0.95885000  0.63502000  0.80878000  1.0
  C  C57  1  0.50225000  0.63103000  0.68497000  1.0
  C  C58  1  0.46208000  0.47477000  0.80142000  1.0
  C  C59  1  0.36369000  0.62982000  0.94781000  1.0
  C  C60  1  0.68041000  0.55634000  0.78336000  1.0
  C  C61  1  0.27930000  0.45672000  0.66682000  1.0
  C  C62  1  0.42991000  0.60962000  0.75485000  1.0
  C  C63  1  0.20763000  0.57366000  0.81898000  1.0
  C  C64  1  0.11042000  0.30399000  0.50959000  1.0
  C  C65  1  0.01842000  0.28481000  0.34265000  1.0
  C  C66  1  0.33361000  0.21740000  0.42292000  1.0
  C  C67  1  0.97902000  0.17664000  0.52107000  1.0
  C  C68  1  0.10877000  0.12188000  0.36968000  1.0
  C  C69  1  0.85493000  0.22913000  0.42453000  1.0
  C  C70  1  0.92850000  0.49550000  0.18830000  1.0
  C  C71  1  0.85523000  0.30906000  0.04184000  1.0
  C  C72  1  0.13937000  0.40869000  0.19228000  1.0
  C  C73  1  0.78017000  0.51263000  0.32706000  1.0
  C  C74  1  0.88792000  0.35951000  0.23590000  1.0
  C  C75  1  0.66094000  0.39630000  0.17818000  1.0
  C  C76  1  0.77495000  0.16459000  0.66532000  1.0
  C  C77  1  0.64765000  0.03855000  0.68828000  1.0
  C  C78  1  0.98691000  0.18861000  0.76976000  1.0
  C  C79  1  0.63574000  0.31096000  0.77286000  1.0
  C  C80  1  0.75179000  0.24416000  0.85541000  1.0
  C  C81  1  0.51480000  0.17825000  0.77842000  1.0
  C  C82  1  0.83441000  0.55002000  0.77148000  1.0
  C  C83  1  0.93902000  0.58803000  0.81061000  1.0
  C  C84  1  0.07258000  0.55701000  0.79381000  1.0
  C  C85  1  0.02733000  0.50860000  0.78802000  1.0
  C  C86  1  0.88040000  0.50078000  0.76614000  1.0
  C  C87  1  0.84845000  0.54627000  0.72090000  1.0
  C  C88  1  0.89972000  0.60174000  0.86344000  1.0
  C  C89  1  0.72203000  0.19961000  0.40532000  1.0
  C  C90  1  0.59429000  0.22316000  0.43994000  1.0
  C  C91  1  0.47354000  0.19648000  0.40500000  1.0
  C  C92  1  0.51435000  0.19071000  0.35589000  1.0
  C  C93  1  0.67390000  0.19763000  0.35801000  1.0
  C  C94  1  0.74974000  0.14589000  0.39152000  1.0
  C  C95  1  0.59251000  0.21500000  0.48360000  1.0
  C  C96  1  0.58387000  0.27869000  0.45995000  1.0
  C  C97  1  0.52437000  0.41608000  0.17197000  1.0
  C  C98  1  0.39339000  0.38367000  0.16463000  1.0
  C  C99  1  0.27399000  0.42121000  0.17798000  1.0
  C  C100  1  0.33179000  0.47143000  0.21386000  1.0
  C  C101  1  0.48739000  0.46379000  0.21726000  1.0
  C  C102  1  0.54682000  0.42577000  0.12932000  1.0
  C  C103  1  0.37595000  0.34097000  0.11219000  1.0
  C  C104  1  0.39540000  0.36259000  0.19931000  1.0
  C  C105  1  0.37382000  0.20382000  0.79795000  1.0
  C  C106  1  0.25486000  0.18481000  0.75874000  1.0
  C  C107  1  0.12627000  0.20509000  0.79230000  1.0
  C  C108  1  0.15431000  0.19735000  0.83511000  1.0
  C  C109  1  0.31411000  0.19136000  0.83573000  1.0
  C  C110  1  0.38540000  0.26013000  0.82452000  1.0
  C  C111  1  0.26337000  0.20366000  0.72253000  1.0
  C  C112  1  0.25019000  0.12860000  0.72851000  1.0
  C  C113  1  0.64574000  0.60524000  0.66588000  1.0
  C  C114  1  0.38379000  0.59750000  0.65079000  1.0
  C  C115  1  0.11348000  0.06896000  0.32687000  1.0
  C  C116  1  0.23642000  0.03485000  0.32706000  1.0
  C  C117  1  0.01646000  0.98731000  0.30072000  1.0
  C  C118  1  0.97884000  0.04116000  0.32655000  1.0
  C  C119  1  0.11346000  0.07104000  0.27919000  1.0
  C  C120  1  0.38009000  0.04266000  0.30859000  1.0
  C  C121  1  0.26126000  0.04277000  0.37841000  1.0
  C  C122  1  0.86768000  0.32177000  0.25221000  1.0
  C  C123  1  0.00214000  0.31160000  0.27563000  1.0
  C  C124  1  0.93519000  0.28687000  0.30270000  1.0
  C  C125  1  0.79036000  0.31174000  0.32066000  1.0
  C  C126  1  0.75625000  0.33815000  0.29292000  1.0
  C  C127  1  0.80987000  0.27486000  0.20785000  1.0
  C  C128  1  0.11215000  0.27796000  0.23794000  1.0
  C  C129  1  0.07886000  0.35932000  0.31108000  1.0
  C  C130  1  0.74645000  0.27765000  0.91127000  1.0
  C  C131  1  0.77206000  0.25797000  0.94749000  1.0
  C  C132  1  0.79956000  0.30623000  0.99601000  1.0
  C  C133  1  0.88504000  0.33780000  0.98148000  1.0
  C  C134  1  0.86258000  0.31678000  0.92709000  1.0
  C  C135  1  0.60064000  0.30475000  0.92171000  1.0
  C  C136  1  0.64241000  0.23042000  0.95124000  1.0
  C  C137  1  0.90421000  0.22491000  0.93402000  1.0
  C  C138  1  0.58082000  0.99397000  0.68672000  1.0
  C  C139  1  0.43039000  0.01071000  0.70913000  1.0
  C  C140  1  0.47650000  0.43630000  0.81545000  1.0
  C  C141  1  0.50781000  0.38345000  0.77295000  1.0
  C  C142  1  0.57116000  0.36043000  0.80116000  1.0
  C  C143  1  0.66742000  0.39880000  0.83936000  1.0
  C  C144  1  0.60460000  0.44728000  0.85002000  1.0
  C  C145  1  0.33708000  0.43976000  0.84318000  1.0
  C  C146  1  0.37424000  0.35563000  0.74437000  1.0
  C  C147  1  0.61964000  0.38252000  0.73664000  1.0
  C  C148  1  0.10138000  0.35713000  0.54946000  1.0
  C  C149  1  0.17212000  0.37243000  0.59995000  1.0
  C  C150  1  0.19147000  0.42791000  0.62146000  1.0
  C  C151  1  0.23782000  0.43400000  0.57931000  1.0
  C  C152  1  0.17985000  0.39002000  0.53386000  1.0
  C  C153  1  0.93995000  0.36915000  0.55384000  1.0
  C  C154  1  0.07889000  0.36187000  0.63338000  1.0
  C  C155  1  0.31782000  0.34729000  0.59354000  1.0
  C  C156  1  0.94015000  0.53226000  0.17084000  1.0
  C  C157  1  0.97967000  0.58642000  0.20881000  1.0
  C  C158  1  0.03014000  0.60589000  0.17523000  1.0
  C  C159  1  0.11346000  0.56412000  0.13495000  1.0
  C  C160  1  0.05991000  0.51777000  0.13285000  1.0
  C  C161  1  0.79610000  0.52848000  0.14528000  1.0
  C  C162  1  0.85295000  0.61603000  0.24048000  1.0
  C  C163  1  0.10254000  0.58957000  0.24262000  1.0
  C  C164  1  0.80335000  0.14453000  0.61149000  1.0
  C  C165  1  0.83523000  0.18297000  0.59503000  1.0
  C  C166  1  0.91052000  0.15151000  0.54574000  1.0
  C  C167  1  0.00739000  0.11802000  0.55402000  1.0
  C  C168  1  0.93870000  0.11259000  0.59477000  1.0
  C  C169  1  0.67248000  0.11240000  0.58524000  1.0
  C  C170  1  0.70017000  0.20711000  0.58926000  1.0
  C  C171  1  0.93840000  0.22344000  0.63020000  1.0
  C  C172  1  0.71463000  0.53895000  0.37747000  1.0
  C  C173  1  0.76463000  0.59281000  0.41014000  1.0
  C  C174  1  0.64803000  0.61344000  0.45063000  1.0
  C  C175  1  0.50972000  0.59002000  0.42369000  1.0
  C  C176  1  0.55132000  0.54418000  0.37655000  1.0
  C  C177  1  0.74782000  0.50654000  0.39978000  1.0
  C  C178  1  0.91591000  0.59529000  0.43000000  1.0
  C  C179  1  0.76367000  0.61981000  0.38107000  1.0
  Cd  Cd180  1  0.25418000  0.82729000  0.24240000  1.0
  Cd  Cd181  1  0.59087000  0.74936000  0.59752000  1.0
  Cd  Cd182  1  0.43474000  0.58658000  0.83856000  1.0
  Cd  Cd183  1  0.07317000  0.23531000  0.40237000  1.0
  Cd  Cd184  1  0.88447000  0.38262000  0.15429000  1.0
  Cd  Cd185  1  0.73101000  0.14725000  0.75471000  1.0
  H  H186  1  0.84724000  0.86612000  0.31961000  1.0
  H  H187  1  0.61854000  0.84784000  0.31933000  1.0
  H  H188  1  0.71554000  0.85902000  0.25163000  1.0
  H  H189  1  0.22962000  0.84317000  0.58747000  1.0
  H  H190  1  0.04350000  0.84523000  0.57593000  1.0
  H  H191  1  0.19303000  0.97524000  0.25421000  1.0
  H  H192  1  0.98359000  0.97199000  0.32365000  1.0
  H  H193  1  0.95840000  0.96762000  0.26595000  1.0
  H  H194  1  0.44059000  0.90815000  0.66191000  1.0
  H  H195  1  0.74652000  0.90588000  0.68891000  1.0
  H  H196  1  0.58517000  0.91700000  0.72327000  1.0
  H  H197  1  0.37153000  0.98246000  0.71221000  1.0
  H  H198  1  0.34727000  0.94396000  0.61815000  1.0
  H  H199  1  0.45933000  0.91153000  0.56697000  1.0
  H  H200  1  0.45839000  0.97598000  0.59781000  1.0
  H  H201  1  0.71707000  0.90147000  0.57447000  1.0
  H  H202  1  0.80955000  0.93722000  0.63006000  1.0
  H  H203  1  0.73535000  0.96478000  0.59808000  1.0
  H  H204  1  0.54609000  0.84143000  0.43591000  1.0
  H  H205  1  0.41011000  0.88073000  0.47585000  1.0
  H  H206  1  0.32193000  0.88762000  0.41218000  1.0
  H  H207  1  0.45558000  0.84709000  0.37460000  1.0
  H  H208  1  0.08087000  0.86046000  0.38594000  1.0
  H  H209  1  0.10519000  0.84892000  0.43414000  1.0
  H  H210  1  0.92899000  0.76091000  0.26100000  1.0
  H  H211  1  0.89102000  0.82276000  0.33735000  1.0
  H  H212  1  0.66071000  0.80270000  0.33438000  1.0
  H  H213  1  0.88413000  0.74364000  0.15648000  1.0
  H  H214  1  0.83052000  0.83244000  0.20021000  1.0
  H  H215  1  0.64696000  0.81756000  0.19290000  1.0
  H  H216  1  0.98533000  0.76119000  0.48579000  1.0
  H  H217  1  0.16121000  0.80814000  0.52802000  1.0
  H  H218  1  0.17749000  0.82532000  0.65275000  1.0
  H  H219  1  0.06171000  0.77722000  0.64399000  1.0
  H  H220  1  0.99256000  0.82941000  0.64398000  1.0
  H  H221  1  0.40553000  0.74720000  0.74362000  1.0
  H  H222  1  0.21326000  0.74950000  0.07834000  1.0
  H  H223  1  0.43389000  0.78004000  0.08073000  1.0
  H  H224  1  0.19084000  0.73969000  0.00706000  1.0
  H  H225  1  0.25992000  0.81908000  0.46351000  1.0
  H  H226  1  0.02597000  0.80357000  0.37941000  1.0
  H  H227  1  0.09819000  0.75774000  0.41244000  1.0
  H  H228  1  0.51828000  0.76148000  0.35696000  1.0
  H  H229  1  0.64376000  0.69400000  0.21600000  1.0
  H  H230  1  0.58022000  0.72136000  0.27563000  1.0
  H  H231  1  0.76450000  0.71878000  0.26620000  1.0
  H  H232  1  0.81643000  0.70415000  0.17581000  1.0
  H  H233  1  0.69743000  0.73023000  0.15229000  1.0
  H  H234  1  0.25072000  0.72934000  0.52212000  1.0
  H  H235  1  0.18351000  0.70060000  0.59563000  1.0
  H  H236  1  0.95295000  0.70199000  0.58310000  1.0
  H  H237  1  0.90268000  0.70671000  0.47245000  1.0
  H  H238  1  0.08811000  0.70860000  0.47237000  1.0
  H  H239  1  0.60008000  0.70011000  0.70508000  1.0
  H  H240  1  0.28003000  0.70507000  0.70066000  1.0
  H  H241  1  0.35559000  0.71355000  0.79200000  1.0
  H  H242  1  0.57982000  0.69087000  0.81160000  1.0
  H  H243  1  0.64595000  0.70490000  0.76973000  1.0
  H  H244  1  0.52393000  0.73577000  0.09018000  1.0
  H  H245  1  0.48214000  0.73193000  0.99884000  1.0
  H  H246  1  0.26952000  0.70886000  0.94915000  1.0
  H  H247  1  0.22367000  0.71022000  0.39376000  1.0
  H  H248  1  0.13394000  0.71893000  0.34915000  1.0
  H  H249  1  0.46462000  0.71492000  0.36865000  1.0
  H  H250  1  0.39146000  0.71635000  0.31819000  1.0
  H  H251  1  0.04117000  0.68759000  0.03479000  1.0
  H  H252  1  0.03654000  0.65907000  0.83641000  1.0
  H  H253  1  0.85738000  0.65494000  0.81703000  1.0
  H  H254  1  0.21518000  0.66470000  0.53143000  1.0
  H  H255  1  0.97266000  0.66700000  0.52037000  1.0
  H  H256  1  0.24868000  0.66814000  0.74535000  1.0
  H  H257  1  0.55649000  0.68685000  0.00966000  1.0
  H  H258  1  0.12379000  0.68185000  0.96239000  1.0
  H  H259  1  0.07735000  0.65588000  0.06612000  1.0
  H  H260  1  0.78732000  0.65852000  0.40440000  1.0
  H  H261  1  0.69218000  0.64862000  0.76469000  1.0
  H  H262  1  0.47146000  0.64606000  0.05210000  1.0
  H  H263  1  0.88808000  0.65281000  0.26779000  1.0
  H  H264  1  0.82448000  0.63247000  0.87980000  1.0
  H  H265  1  0.31880000  0.63393000  0.07759000  1.0
  H  H266  1  0.78017000  0.98536000  0.71723000  1.0
  H  H267  1  0.10075000  0.55322000  0.75890000  1.0
  H  H268  1  0.02141000  0.51112000  0.82388000  1.0
  H  H269  1  0.09839000  0.47788000  0.76614000  1.0
  H  H270  1  0.88278000  0.47119000  0.72791000  1.0
  H  H271  1  0.80913000  0.48891000  0.78594000  1.0
  H  H272  1  0.82286000  0.58094000  0.72325000  1.0
  H  H273  1  0.77531000  0.51882000  0.69399000  1.0
  H  H274  1  0.95433000  0.53492000  0.70412000  1.0
  H  H275  1  0.99945000  0.62833000  0.77348000  1.0
  H  H276  1  0.99302000  0.61354000  0.88758000  1.0
  H  H277  1  0.85059000  0.57125000  0.86531000  1.0
  H  H278  1  0.46567000  0.15969000  0.40012000  1.0
  H  H279  1  0.46401000  0.21776000  0.34858000  1.0
  H  H280  1  0.48492000  0.15422000  0.32632000  1.0
  H  H281  1  0.72595000  0.16827000  0.32532000  1.0
  H  H282  1  0.69587000  0.23153000  0.35769000  1.0
  H  H283  1  0.78038000  0.14143000  0.42213000  1.0
  H  H284  1  0.83489000  0.13071000  0.36433000  1.0
  H  H285  1  0.65877000  0.12156000  0.37376000  1.0
  H  H286  1  0.59400000  0.17633000  0.47287000  1.0
  H  H287  1  0.49538000  0.23079000  0.50556000  1.0
  H  H288  1  0.68364000  0.23374000  0.50743000  1.0
  H  H289  1  0.58138000  0.28770000  0.43075000  1.0
  H  H290  1  0.67444000  0.29796000  0.48415000  1.0
  H  H291  1  0.48649000  0.29394000  0.48195000  1.0
  H  H292  1  0.24639000  0.42276000  0.14497000  1.0
  H  H293  1  0.28410000  0.48824000  0.25045000  1.0
  H  H294  1  0.31625000  0.49639000  0.19967000  1.0
  H  H295  1  0.55183000  0.49492000  0.22189000  1.0
  H  H296  1  0.49726000  0.45945000  0.24917000  1.0
  H  H297  1  0.57881000  0.39256000  0.09583000  1.0
  H  H298  1  0.63280000  0.45225000  0.13809000  1.0
  H  H299  1  0.45142000  0.44073000  0.12128000  1.0
  H  H300  1  0.35714000  0.35342000  0.08599000  1.0
  H  H301  1  0.28407000  0.31811000  0.10948000  1.0
  H  H302  1  0.47063000  0.31734000  0.10039000  1.0
  H  H303  1  0.29952000  0.34043000  0.19413000  1.0
  H  H304  1  0.39799000  0.39112000  0.23776000  1.0
  H  H305  1  0.48768000  0.33844000  0.19214000  1.0
  H  H306  1  0.12326000  0.24486000  0.80735000  1.0
  H  H307  1  0.10051000  0.16501000  0.83188000  1.0
  H  H308  1  0.11959000  0.22953000  0.86886000  1.0
  H  H309  1  0.35833000  0.21444000  0.87241000  1.0
  H  H310  1  0.33526000  0.15361000  0.82651000  1.0
  H  H311  1  0.49242000  0.27213000  0.83494000  1.0
  H  H312  1  0.32275000  0.27840000  0.85841000  1.0
  H  H313  1  0.34631000  0.27686000  0.80400000  1.0
  H  H314  1  0.23124000  0.24184000  0.73829000  1.0
  H  H315  1  0.18954000  0.18333000  0.69189000  1.0
  H  H316  1  0.37210000  0.19895000  0.70755000  1.0
  H  H317  1  0.15848000  0.11615000  0.70338000  1.0
  H  H318  1  0.23998000  0.11155000  0.75109000  1.0
  H  H319  1  0.34732000  0.11426000  0.70617000  1.0
  H  H320  1  0.73708000  0.62835000  0.68610000  1.0
  H  H321  1  0.66036000  0.59535000  0.62763000  1.0
  H  H322  1  0.64820000  0.57162000  0.66770000  1.0
  H  H323  1  0.40034000  0.59022000  0.61352000  1.0
  H  H324  1  0.27617000  0.61299000  0.66242000  1.0
  H  H325  1  0.38591000  0.56159000  0.64778000  1.0
  H  H326  1  0.09020000  0.62492000  0.00161000  1.0
  H  H327  1  0.34770000  0.59981000  0.01474000  1.0
  H  H328  1  0.88719000  0.04750000  0.30856000  1.0
  H  H329  1  0.94461000  0.05230000  0.36389000  1.0
  H  H330  1  0.20815000  0.09050000  0.27703000  1.0
  H  H331  1  0.01832000  0.09065000  0.27747000  1.0
  H  H332  1  0.11046000  0.03501000  0.24643000  1.0
  H  H333  1  0.37511000  0.03266000  0.27012000  1.0
  H  H334  1  0.46407000  0.01997000  0.31159000  1.0
  H  H335  1  0.41295000  0.08091000  0.33011000  1.0
  H  H336  1  0.16332000  0.03641000  0.39365000  1.0
  H  H337  1  0.29937000  0.07992000  0.40317000  1.0
  H  H338  1  0.34547000  0.01852000  0.37827000  1.0
  H  H339  1  0.91247000  0.24865000  0.27558000  1.0
  H  H340  1  0.79164000  0.33815000  0.35995000  1.0
  H  H341  1  0.70708000  0.28449000  0.31389000  1.0
  H  H342  1  0.64548000  0.33074000  0.27904000  1.0
  H  H343  1  0.76326000  0.37750000  0.31855000  1.0
  H  H344  1  0.88703000  0.25947000  0.17766000  1.0
  H  H345  1  0.71125000  0.28286000  0.19411000  1.0
  H  H346  1  0.78242000  0.24649000  0.21660000  1.0
  H  H347  1  0.06970000  0.24109000  0.21474000  1.0
  H  H348  1  0.20810000  0.27433000  0.25602000  1.0
  H  H349  1  0.14484000  0.29267000  0.21459000  1.0
  H  H350  1  0.17207000  0.35229000  0.32785000  1.0
  H  H351  1  0.00754000  0.38463000  0.34039000  1.0
  H  H352  1  0.11974000  0.37763000  0.29188000  1.0
  H  H353  1  0.69590000  0.32431000  0.00931000  1.0
  H  H354  1  0.00002000  0.33712000  0.98896000  1.0
  H  H355  1  0.84742000  0.37574000  0.00176000  1.0
  H  H356  1  0.83489000  0.34570000  0.91893000  1.0
  H  H357  1  0.96367000  0.30048000  0.90794000  1.0
  H  H358  1  0.51150000  0.27904000  0.91109000  1.0
  H  H359  1  0.59176000  0.32517000  0.90228000  1.0
  H  H360  1  0.58214000  0.33287000  0.95943000  1.0
  H  H361  1  0.54908000  0.25429000  0.96738000  1.0
  H  H362  1  0.66671000  0.21483000  0.97453000  1.0
  H  H363  1  0.61262000  0.20057000  0.91497000  1.0
  H  H364  1  0.91745000  0.21093000  0.95922000  1.0
  H  H365  1  0.00301000  0.24456000  0.93619000  1.0
  H  H366  1  0.89464000  0.19320000  0.89745000  1.0
  H  H367  1  0.63210000  0.99884000  0.75687000  1.0
  H  H368  1  0.43800000  0.04229000  0.74613000  1.0
  H  H369  1  0.36532000  0.02213000  0.68771000  1.0
  H  H370  1  0.48289000  0.35524000  0.82114000  1.0
  H  H371  1  0.77778000  0.39547000  0.82573000  1.0
  H  H372  1  0.66945000  0.39563000  0.87235000  1.0
  H  H373  1  0.57402000  0.46905000  0.88861000  1.0
  H  H374  1  0.68828000  0.46784000  0.84347000  1.0
  H  H375  1  0.32406000  0.47653000  0.87479000  1.0
  H  H376  1  0.33479000  0.41456000  0.85734000  1.0
  H  H377  1  0.24245000  0.43279000  0.81992000  1.0
  H  H378  1  0.31904000  0.37556000  0.72912000  1.0
  H  H379  1  0.29814000  0.34949000  0.76719000  1.0
  H  H380  1  0.40414000  0.31962000  0.71405000  1.0
  H  H381  1  0.65691000  0.34523000  0.71194000  1.0
  H  H382  1  0.71388000  0.40486000  0.75523333  1.0
  H  H383  1  0.57451000  0.39553000  0.71329000  1.0
  H  H384  1  0.08440000  0.44454000  0.63204000  1.0
  H  H385  1  0.35554000  0.43495000  0.57728000  1.0
  H  H386  1  0.19452000  0.46796000  0.58304000  1.0
  H  H387  1  0.11003000  0.40152000  0.51346000  1.0
  H  H388  1  0.27185000  0.37085000  0.51018000  1.0
  H  H389  1  0.87904000  0.34650000  0.56477000  1.0
  H  H390  1  0.89644000  0.36166000  0.51850000  1.0
  H  H391  1  0.91669000  0.40746000  0.57970000  1.0
  H  H392  1  0.97900000  0.38305000  0.64368000  1.0
  H  H393  1  0.13619000  0.37171000  0.66735000  1.0
  H  H394  1  0.05176000  0.32302000  0.61551000  1.0
  H  H395  1  0.37156000  0.36088000  0.62885000  1.0
  H  H396  1  0.38992000  0.35343000  0.56978000  1.0
  H  H397  1  0.30408000  0.30782000  0.57759000  1.0
  H  H398  1  0.93452000  0.61134000  0.15830000  1.0
  H  H399  1  0.22932000  0.56800000  0.14256000  1.0
  H  H400  1  0.09529000  0.56273000  0.10001000  1.0
  H  H401  1  0.02451000  0.49116000  0.09577000  1.0
  H  H402  1  0.14975000  0.50095000  0.14160000  1.0
  H  H403  1  0.70564000  0.53642000  0.17039000  1.0
  H  H404  1  0.78105000  0.49157000  0.11424000  1.0
  H  H405  1  0.78813000  0.55268000  0.13009000  1.0
  H  H406  1  0.76797000  0.62018000  0.21888000  1.0
  H  H407  1  0.80694000  0.59857000  0.25981000  1.0
  H  H408  1  0.13483000  0.62761000  0.26664000  1.0
  H  H409  1  0.19774000  0.56958000  0.22211000  1.0
  H  H410  1  0.07008000  0.57517000  0.26622000  1.0
  H  H411  1  0.82840000  0.12833000  0.51948000  1.0
  H  H412  1  0.11517000  0.13388000  0.56529000  1.0
  H  H413  1  0.01708000  0.08248000  0.52055000  1.0
  H  H414  1  0.91546000  0.07408000  0.58223000  1.0
  H  H415  1  0.01607000  0.12490000  0.62489000  1.0
  H  H416  1  0.66081000  0.08331000  0.59422000  1.0
  H  H417  1  0.68054000  0.09440000  0.54553000  1.0
  H  H418  1  0.57288000  0.13379000  0.59659000  1.0
  H  H419  1  0.63235000  0.18101000  0.55920000  1.0
  H  H420  1  0.72923000  0.23616000  0.58159000  1.0
  H  H421  1  0.63630000  0.22360000  0.62284000  1.0
  H  H422  1  0.98107000  0.24406000  0.61364000  1.0
  H  H423  1  0.02983000  0.20872000  0.64052000  1.0
  H  H424  1  0.88428000  0.25036000  0.66358000  1.0
  H  H425  1  0.66917000  0.59794000  0.47423000  1.0
  H  H426  1  0.45019000  0.61471000  0.41504000  1.0
  H  H427  1  0.44039000  0.58090000  0.44606000  1.0
  H  H428  1  0.49351000  0.51224000  0.37285000  1.0
  H  H429  1  0.51862000  0.54862000  0.34565000  1.0
  H  H430  1  0.70432000  0.46973000  0.37647000  1.0
  H  H431  1  0.69984000  0.52015000  0.43582000  1.0
  H  H432  1  0.86374000  0.50236000  0.40269000  1.0
  H  H433  1  0.91595000  0.58765000  0.46016000  1.0
  H  H434  1  0.96494000  0.63062000  0.44207000  1.0
  H  H435  1  0.98771000  0.56911000  0.40162000  1.0
  H  H436  1  0.65946000  0.61727000  0.36388000  1.0
  H  H437  1  0.84560000  0.60495000  0.35231000  1.0
  Mn  Mn438  1  0.55719000  0.76678000  0.51759000  1.0
  Mn  Mn439  1  0.21661000  0.72599000  0.21560000  1.0
  Mn  Mn440  1  0.39703000  0.51020000  0.73732000  1.0
  Mn  Mn441  1  0.07366000  0.19837000  0.46823000  1.0
  Mn  Mn442  1  0.87296000  0.45963000  0.25221000  1.0
  Mn  Mn443  1  0.72290000  0.23959000  0.76092000  1.0
  O  O444  1  0.05507000  0.85710000  0.26807000  1.0
  O  O445  1  0.23919000  0.93681000  0.33200000  1.0
  O  O446  1  0.24694000  0.89706000  0.25016000  1.0
  O  O447  1  0.53431000  0.83502000  0.56887000  1.0
  O  O448  1  0.29233000  0.78729000  0.16698000  1.0
  O  O449  1  0.20555000  0.75047000  0.28610000  1.0
  O  O450  1  0.27818000  0.82845000  0.30781000  1.0
  O  O451  1  0.13210000  0.78366000  0.22327000  1.0
  O  O452  1  0.45445000  0.82321000  0.25355000  1.0
  O  O453  1  0.41952000  0.74197000  0.22381000  1.0
  O  O454  1  0.60902000  0.82419000  0.63203000  1.0
  O  O455  1  0.37759000  0.76689000  0.49095000  1.0
  O  O456  1  0.58177000  0.78605000  0.46994000  1.0
  O  O457  1  0.47851000  0.74365000  0.55682000  1.0
  O  O458  1  0.38879000  0.76460000  0.62754000  1.0
  O  O459  1  0.78911000  0.76350000  0.60134000  1.0
  O  O460  1  0.75785000  0.77021000  0.53363000  1.0
  O  O461  1  0.23845000  0.70802000  0.14747000  1.0
  O  O462  1  0.03856000  0.69356000  0.20330000  1.0
  O  O463  1  0.58928000  0.69787000  0.47092000  1.0
  O  O464  1  0.58740000  0.71846000  0.64177000  1.0
  O  O465  1  0.24577000  0.66038000  0.20198000  1.0
  O  O466  1  0.63851000  0.68215000  0.53343000  1.0
  O  O467  1  0.40791000  0.66373000  0.60788000  1.0
  O  O468  1  0.44039000  0.63240000  0.91438000  1.0
  O  O469  1  0.39353000  0.56416000  0.72297000  1.0
  O  O470  1  0.44747000  0.62369000  0.80143000  1.0
  O  O471  1  0.41383000  0.46259000  0.75756000  1.0
  O  O472  1  0.47925000  0.52091000  0.83653000  1.0
  O  O473  1  0.21680000  0.48601000  0.70827000  1.0
  O  O474  1  0.42006000  0.46222000  0.66919000  1.0
  O  O475  1  0.32236000  0.54931000  0.80046000  1.0
  O  O476  1  0.22874000  0.61474000  0.85861000  1.0
  O  O477  1  0.63239000  0.59146000  0.82415000  1.0
  O  O478  1  0.59860000  0.52224000  0.75082000  1.0
  O  O479  1  0.28292000  0.59185000  0.93453000  1.0
  O  O480  1  0.08218000  0.13112000  0.41472000  1.0
  O  O481  1  0.10992000  0.15818000  0.35956000  1.0
  O  O482  1  0.07420000  0.26840000  0.51788000  1.0
  O  O483  1  0.12364000  0.29622000  0.46506000  1.0
  O  O484  1  0.90231000  0.18863000  0.49382000  1.0
  O  O485  1  0.11887000  0.17982000  0.51578000  1.0
  O  O486  1  0.97201000  0.20673000  0.42157000  1.0
  O  O487  1  0.87486000  0.26558000  0.41718000  1.0
  O  O488  1  0.27135000  0.23976000  0.40341000  1.0
  O  O489  1  0.26896000  0.20263000  0.44983000  1.0
  O  O490  1  0.05029000  0.32477000  0.38244000  1.0
  O  O491  1  0.02606000  0.24331000  0.34238000  1.0
  O  O492  1  0.86142000  0.40597000  0.26637000  1.0
  O  O493  1  0.91294000  0.34375000  0.18948000  1.0
  O  O494  1  0.89016000  0.50904000  0.23344000  1.0
  O  O495  1  0.93484000  0.44851000  0.15455000  1.0
  O  O496  1  0.70314000  0.48673000  0.28779000  1.0
  O  O497  1  0.91925000  0.50451000  0.31864000  1.0
  O  O498  1  0.77076000  0.42511000  0.19196000  1.0
  O  O499  1  0.69234000  0.35179000  0.14494000  1.0
  O  O500  1  0.07703000  0.37116000  0.15787000  1.0
  O  O501  1  0.07061000  0.44337000  0.22940000  1.0
  O  O502  1  0.85234000  0.27157000  0.04798000  1.0
  O  O503  1  0.86709000  0.35300000  0.07960000  1.0
  O  O504  1  0.72808000  0.26671000  0.83078000  1.0
  O  O505  1  0.76478000  0.19600000  0.83231000  1.0
  O  O506  1  0.73246000  0.20980000  0.69179000  1.0
  O  O507  1  0.78181000  0.13512000  0.68385000  1.0
  O  O508  1  0.55618000  0.27294000  0.76266000  1.0
  O  O509  1  0.77487000  0.30215000  0.77111000  1.0
  O  O510  1  0.60598000  0.18510000  0.75099000  1.0
  O  O511  1  0.54757000  0.14083000  0.78289000  1.0
  O  O512  1  0.92580000  0.15280000  0.77092000  1.0
  O  O513  1  0.91959000  0.21853000  0.75962000  1.0
  O  O514  1  0.61565000  0.04894000  0.65469000  1.0
  O  O515  1  0.69946000  0.07308000  0.72979000  1.0
