# generated using pymatgen
data_FeH6C14SO6
_symmetry_space_group_name_H-M   'P 1'
_cell_length_a   28.73175000
_cell_length_b   28.73175000
_cell_length_c   30.83990000
_cell_angle_alpha   90.00000000
_cell_angle_beta   90.00000000
_cell_angle_gamma   120.00000000
_symmetry_Int_Tables_number   1
_chemical_formula_structural   FeH6C14SO6
_chemical_formula_sum   'Fe18 H108 C252 S18 O108'
_cell_volume   22047.92640959
_cell_formula_units_Z   18
loop_
 _symmetry_equiv_pos_site_id
 _symmetry_equiv_pos_as_xyz
  1  'x, y, z'
loop_
 _atom_site_type_symbol
 _atom_site_label
 _atom_site_symmetry_multiplicity
 _atom_site_fract_x
 _atom_site_fract_y
 _atom_site_fract_z
 _atom_site_occupancy
  C  C0  1  0.67760000  0.76770000  0.84957000  1.0
  C  C1  1  0.76982000  0.87204000  0.75117000  1.0
  C  C2  1  0.75948000  0.73326000  0.75744000  1.0
  C  C3  1  0.66374000  0.75526000  0.63649000  1.0
  C  C4  1  0.58330000  0.78852000  0.73561000  1.0
  C  C5  1  0.57318000  0.64872000  0.73153500  1.0
  C  C6  1  0.26692000  0.96208000  0.84400000  1.0
  C  C7  1  0.12698000  0.90008000  0.76678000  1.0
  C  C8  1  0.25446000  0.02556000  0.74056000  1.0
  C  C9  1  0.25994000  0.91574000  0.63944000  1.0
  C  C10  1  0.22670000  0.81478000  0.73873000  1.0
  C  C11  1  0.35492000  0.95340000  0.75276000  1.0
  C  C12  1  0.03757000  0.29439000  0.85141000  1.0
  C  C13  1  0.10506000  0.23065000  0.76625000  1.0
  C  C14  1  0.97464000  0.23348000  0.74495500  1.0
  C  C15  1  0.08945000  0.33010000  0.64031000  1.0
  C  C16  1  0.19559000  0.40552000  0.73840500  1.0
  C  C17  1  0.06970000  0.41861000  0.73844000  1.0
  C  C18  1  0.90041000  0.24804000  0.36024000  1.0
  C  C19  1  0.80125000  0.22259000  0.25586500  1.0
  C  C20  1  0.93642000  0.35372000  0.25709500  1.0
  C  C21  1  0.96200000  0.26229000  0.15775500  1.0
  C  C22  1  0.88010000  0.12310000  0.23033500  1.0
  C  C23  1  0.01414000  0.25068000  0.26613000  1.0
  C  C24  1  0.75040000  0.66194000  0.35597000  1.0
  C  C25  1  0.78520000  0.59566000  0.25406000  1.0
  C  C26  1  0.64998000  0.59192000  0.24876000  1.0
  C  C27  1  0.76594000  0.71280000  0.13616000  1.0
  C  C28  1  0.87954000  0.77044000  0.23223000  1.0
  C  C29  1  0.73862000  0.76932000  0.24205000  1.0
  C  C30  1  0.32298000  0.08554000  0.35701000  1.0
  C  C31  1  0.41124000  0.19530000  0.26122000  1.0
  C  C32  1  0.41167000  0.06211000  0.26150000  1.0
  C  C33  1  0.28864000  0.05268000  0.14019000  1.0
  C  C34  1  0.22046000  0.09782000  0.23298000  1.0
  C  C35  1  0.23434000  0.96484000  0.24680000  1.0
  C  C36  1  0.73382000  0.68186000  0.09749000  1.0
  C  C37  1  0.67890000  0.66700000  0.09470000  1.0
  C  C38  1  0.76242000  0.69128000  0.05794000  1.0
  C  C39  1  0.73762000  0.68936000  0.01814000  1.0
  C  C40  1  0.65478000  0.66632000  0.05428000  1.0
  C  C41  1  0.68526000  0.67970000  0.01593000  1.0
  C  C42  1  0.67108000  0.68976000  0.97109000  1.0
  C  C43  1  0.62634000  0.69370000  0.95783000  1.0
  C  C44  1  0.71250000  0.70338000  0.94169000  1.0
  C  C45  1  0.71070000  0.72052000  0.89929000  1.0
  C  C46  1  0.62468000  0.71274000  0.91556000  1.0
  C  C47  1  0.66704000  0.72736000  0.88550000  1.0
  C  C48  1  0.28008000  0.04264000  0.38505000  1.0
  C  C49  1  0.27508000  0.99108000  0.38417000  1.0
  C  C50  1  0.26658000  0.05850000  0.42475000  1.0
  C  C51  1  0.25090000  0.02446000  0.46157000  1.0
  C  C52  1  0.26032000  0.95790000  0.42156000  1.0
  C  C53  1  0.24904000  0.97530000  0.46073000  1.0
  C  C54  1  0.24074000  0.95046000  0.50524000  1.0
  C  C55  1  0.24042000  0.90332000  0.51690000  1.0
  C  C56  1  0.23754000  0.98212000  0.53789000  1.0
  C  C57  1  0.23846000  0.97024000  0.58268000  1.0
  C  C58  1  0.23864000  0.88958000  0.56114000  1.0
  C  C59  1  0.23946000  0.92314000  0.59548000  1.0
  C  C60  1  0.04889000  0.32054000  0.89532500  1.0
  C  C61  1  0.02700000  0.35335000  0.90678500  1.0
  C  C62  1  0.05583000  0.29106000  0.92927000  1.0
  C  C63  1  0.03215000  0.28691000  0.96979000  1.0
  C  C64  1  0.00811000  0.35286000  0.94947000  1.0
  C  C65  1  0.00884000  0.31756000  0.98054500  1.0
  C  C66  1  0.98088000  0.30158000  0.02361000  1.0
  C  C67  1  0.96518000  0.33060000  0.05078500  1.0
  C  C68  1  0.97828000  0.25519000  0.03936000  1.0
  C  C69  1  0.95988000  0.23618000  0.08103000  1.0
  C  C70  1  0.95156000  0.31464000  0.09479000  1.0
  C  C71  1  0.95080000  0.26820000  0.11101000  1.0
  C  C72  1  0.70766000  0.75990000  0.60693000  1.0
  C  C73  1  0.72218000  0.71968000  0.60837000  1.0
  C  C74  1  0.71526000  0.78728000  0.56658000  1.0
  C  C75  1  0.73520000  0.77328000  0.52981000  1.0
  C  C76  1  0.74270000  0.70658000  0.57139000  1.0
  C  C77  1  0.74822000  0.73298000  0.53170000  1.0
  C  C78  1  0.76042000  0.71906000  0.48758000  1.0
  C  C79  1  0.77254000  0.67900000  0.47754000  1.0
  C  C80  1  0.75464000  0.74802000  0.45385000  1.0
  C  C81  1  0.75700000  0.73540000  0.40931000  1.0
  C  C82  1  0.77710000  0.66728000  0.43383000  1.0
  C  C83  1  0.76798000  0.69358000  0.39840000  1.0
  C  C84  1  0.32022000  0.06280000  0.09931000  1.0
  C  C85  1  0.35256000  0.03904000  0.09237000  1.0
  C  C86  1  0.29382000  0.06872000  0.06279000  1.0
  C  C87  1  0.28934000  0.04054000  0.02484000  1.0
  C  C88  1  0.35318000  0.01658000  0.05132000  1.0
  C  C89  1  0.31894000  0.01518000  0.01807000  1.0
  C  C90  1  0.30206000  0.98258000  0.97707000  1.0
  C  C91  1  0.33132000  0.96560000  0.95161000  1.0
  C  C92  1  0.25514000  0.97796000  0.96022000  1.0
  C  C93  1  0.23540000  0.95532000  0.91955000  1.0
  C  C94  1  0.31534000  0.94908000  0.90803000  1.0
  C  C95  1  0.26856000  0.94652000  0.89046000  1.0
  C  C96  1  0.05579500  0.28759500  0.60741500  1.0
  C  C97  1  0.08157000  0.27162000  0.57615500  1.0
  C  C98  1  0.00766000  0.28539000  0.59421500  1.0
  C  C99  1  0.98765000  0.26922000  0.55182500  1.0
  C  C100  1  0.06050000  0.25485000  0.53353500  1.0
  C  C101  1  0.01336000  0.25453000  0.52094500  1.0
  C  C102  1  0.98693000  0.24464000  0.47656500  1.0
  C  C103  1  0.00108000  0.23194000  0.43601000  1.0
  C  C104  1  0.94306000  0.25226000  0.47774500  1.0
  C  C105  1  0.91309000  0.24806000  0.44080500  1.0
  C  C106  1  0.97147000  0.22880000  0.39753000  1.0
  C  C107  1  0.92730000  0.23782000  0.39910500  1.0
  C  C108  1  0.52812000  0.60404000  0.75302000  1.0
  C  C109  1  0.51592000  0.55102000  0.74482000  1.0
  C  C110  1  0.48794000  0.61436000  0.76770000  1.0
  C  C111  1  0.43582000  0.57204000  0.77157000  1.0
  C  C112  1  0.46325000  0.50833000  0.75028000  1.0
  C  C113  1  0.42302000  0.51960000  0.76259500  1.0
  C  C114  1  0.36448000  0.48336000  0.76028000  1.0
  C  C115  1  0.33683000  0.42850000  0.75071000  1.0
  C  C116  1  0.33656000  0.51079000  0.76579500  1.0
  C  C117  1  0.28133000  0.48572000  0.75992000  1.0
  C  C118  1  0.28064000  0.40194000  0.74637500  1.0
  C  C119  1  0.25277000  0.43068000  0.75005000  1.0
  C  C120  1  0.39282000  0.93456000  0.76228000  1.0
  C  C121  1  0.41356000  0.93544000  0.80396000  1.0
  C  C122  1  0.40266000  0.90812000  0.72854000  1.0
  C  C123  1  0.43358000  0.88496000  0.73603000  1.0
  C  C124  1  0.44682000  0.91276000  0.81081000  1.0
  C  C125  1  0.45710000  0.88778000  0.77596000  1.0
  C  C126  1  0.49084000  0.86208000  0.77388000  1.0
  C  C127  1  0.52474000  0.85892000  0.80518000  1.0
  C  C128  1  0.48832000  0.84142000  0.73287000  1.0
  C  C129  1  0.51846000  0.81870000  0.72128000  1.0
  C  C130  1  0.55606000  0.83506000  0.79379000  1.0
  C  C131  1  0.55316000  0.81486000  0.75137000  1.0
  C  C132  1  0.09996000  0.47791000  0.74228000  1.0
  C  C133  1  0.13337000  0.50572000  0.70658000  1.0
  C  C134  1  0.09460000  0.50781000  0.77648500  1.0
  C  C135  1  0.11955000  0.56412000  0.77148500  1.0
  C  C136  1  0.15630000  0.56040000  0.70207000  1.0
  C  C137  1  0.14717000  0.58880000  0.73382500  1.0
  C  C138  1  0.16529000  0.64593000  0.73185000  1.0
  C  C139  1  0.18912000  0.67864000  0.69618000  1.0
  C  C140  1  0.15462000  0.66550000  0.76929000  1.0
  C  C141  1  0.17180000  0.72073000  0.77341000  1.0
  C  C142  1  0.20604000  0.73277000  0.69935000  1.0
  C  C143  1  0.19968000  0.75526000  0.73804000  1.0
  C  C144  1  0.91904000  0.39251000  0.24535500  1.0
  C  C145  1  0.92318000  0.41384000  0.20337000  1.0
  C  C146  1  0.89332000  0.40548000  0.27810500  1.0
  C  C147  1  0.87482000  0.44020000  0.26958000  1.0
  C  C148  1  0.90466000  0.45036000  0.19537000  1.0
  C  C149  1  0.88104000  0.46384000  0.22934000  1.0
  C  C150  1  0.85882000  0.50048000  0.22947000  1.0
  C  C151  1  0.85960000  0.53428000  0.19648000  1.0
  C  C152  1  0.83626000  0.50014000  0.26938000  1.0
  C  C153  1  0.81294000  0.53116000  0.27750000  1.0
  C  C154  1  0.83676000  0.56702000  0.20445000  1.0
  C  C155  1  0.81258000  0.56492000  0.24486000  1.0
  C  C156  1  0.62002000  0.53244000  0.24595000  1.0
  C  C157  1  0.62720000  0.50562000  0.28142000  1.0
  C  C158  1  0.58484000  0.50152000  0.21184000  1.0
  C  C159  1  0.55632000  0.44478000  0.21613000  1.0
  C  C160  1  0.60004000  0.45066000  0.28446000  1.0
  C  C161  1  0.56298000  0.42086000  0.25272000  1.0
  C  C162  1  0.52426000  0.36382000  0.25614000  1.0
  C  C163  1  0.51672000  0.33394000  0.29308000  1.0
  C  C164  1  0.49002000  0.34264000  0.22090000  1.0
  C  C165  1  0.44956000  0.28742000  0.21998000  1.0
  C  C166  1  0.47606000  0.28146000  0.29399000  1.0
  C  C167  1  0.44396000  0.25538000  0.25705000  1.0
  C  C168  1  0.74380000  0.19391000  0.24483500  1.0
  C  C169  1  0.72500000  0.19612000  0.20302000  1.0
  C  C170  1  0.70680000  0.16647000  0.27807000  1.0
  C  C171  1  0.65234000  0.14096000  0.26893000  1.0
  C  C172  1  0.66940000  0.17172000  0.19477000  1.0
  C  C173  1  0.63322000  0.14394000  0.22830500  1.0
  C  C174  1  0.57382000  0.11550000  0.22739000  1.0
  C  C175  1  0.54018000  0.11740000  0.19549000  1.0
  C  C176  1  0.55228000  0.09012000  0.26653000  1.0
  C  C177  1  0.49796000  0.06592000  0.27517000  1.0
  C  C178  1  0.48490000  0.09494000  0.20448000  1.0
  C  C179  1  0.46356000  0.07004000  0.24499000  1.0
  C  C180  1  0.79408000  0.92716000  0.73611000  1.0
  C  C181  1  0.81694000  0.94308000  0.69460000  1.0
  C  C182  1  0.79754000  0.96543000  0.76600000  1.0
  C  C183  1  0.82176000  0.01848000  0.75352000  1.0
  C  C184  1  0.84294000  0.99766000  0.68289000  1.0
  C  C185  1  0.84395000  0.03495000  0.71263500  1.0
  C  C186  1  0.86626000  0.09303000  0.70697000  1.0
  C  C187  1  0.90180000  0.12562000  0.67476000  1.0
  C  C188  1  0.85628000  0.11606000  0.74289500  1.0
  C  C189  1  0.88212000  0.17113000  0.74839000  1.0
  C  C190  1  0.93104000  0.18123000  0.68174500  1.0
  C  C191  1  0.92534000  0.20288000  0.72103000  1.0
  C  C192  1  0.07096000  0.87270000  0.75292000  1.0
  C  C193  1  0.05590000  0.87164000  0.70920000  1.0
  C  C194  1  0.03156000  0.84594000  0.78467000  1.0
  C  C195  1  0.97878000  0.81606000  0.77212000  1.0
  C  C196  1  0.00160000  0.84198000  0.69722000  1.0
  C  C197  1  0.96360000  0.81316000  0.72921000  1.0
  C  C198  1  0.90680000  0.77370000  0.72338000  1.0
  C  C199  1  0.87398000  0.77230000  0.68954000  1.0
  C  C200  1  0.88440000  0.74438000  0.76112000  1.0
  C  C201  1  0.82968000  0.71214000  0.76566000  1.0
  C  C202  1  0.81844000  0.74532000  0.69639000  1.0
  C  C203  1  0.79728000  0.72056000  0.73678000  1.0
  C  C204  1  0.13158000  0.20269000  0.74954500  1.0
  C  C205  1  0.12205000  0.18144000  0.70723500  1.0
  C  C206  1  0.16700000  0.19679000  0.77714500  1.0
  C  C207  1  0.19437000  0.17255000  0.76134000  1.0
  C  C208  1  0.14940000  0.15578000  0.69208500  1.0
  C  C209  1  0.18692000  0.15329000  0.71933000  1.0
  C  C210  1  0.22364000  0.13377000  0.70888000  1.0
  C  C211  1  0.21724000  0.09858000  0.67539000  1.0
  C  C212  1  0.25986000  0.14336000  0.74239000  1.0
  C  C213  1  0.29038000  0.11846000  0.74324000  1.0
  C  C214  1  0.24280000  0.06842000  0.67928000  1.0
  C  C215  1  0.27422000  0.07423000  0.71598000  1.0
  C  C216  1  0.83872000  0.06748000  0.23847500  1.0
  C  C217  1  0.80138000  0.04006000  0.20506000  1.0
  C  C218  1  0.84060000  0.03910000  0.27484000  1.0
  C  C219  1  0.80356000  0.98432000  0.27747000  1.0
  C  C220  1  0.76428000  0.98548000  0.20855000  1.0
  C  C221  1  0.76474000  0.95822000  0.24570000  1.0
  C  C222  1  0.73334000  0.90018000  0.25275000  1.0
  C  C223  1  0.69762000  0.86228000  0.22323000  1.0
  C  C224  1  0.75108000  0.88438000  0.28881000  1.0
  C  C225  1  0.73956000  0.83160000  0.29301000  1.0
  C  C226  1  0.68464000  0.80898000  0.22800000  1.0
  C  C227  1  0.71160000  0.79584000  0.25931000  1.0
  C  C228  1  0.93358000  0.78156000  0.24439000  1.0
  C  C229  1  0.95984000  0.76476000  0.21486000  1.0
  C  C230  1  0.96256000  0.81508000  0.27928000  1.0
  C  C231  1  0.01654000  0.82932000  0.28431000  1.0
  C  C232  1  0.01360000  0.77956000  0.22033000  1.0
  C  C233  1  0.04138000  0.81092000  0.25592000  1.0
  C  C234  1  0.09926000  0.83520000  0.26402000  1.0
  C  C235  1  0.13638000  0.83152000  0.23706000  1.0
  C  C236  1  0.11652000  0.87274000  0.29736000  1.0
  C  C237  1  0.17038000  0.91218000  0.30076000  1.0
  C  C238  1  0.19062000  0.86980000  0.24118000  1.0
  C  C239  1  0.20616000  0.91396000  0.26896000  1.0
  C  C240  1  0.07138000  0.28015000  0.27342000  1.0
  C  C241  1  0.10020000  0.29662000  0.23416000  1.0
  C  C242  1  0.08845000  0.25821000  0.30606000  1.0
  C  C243  1  0.12220000  0.23864000  0.29434000  1.0
  C  C244  1  0.13070000  0.27342000  0.22160000  1.0
  C  C245  1  0.13906000  0.24204000  0.25175000  1.0
  C  C246  1  0.16052000  0.20626000  0.24330000  1.0
  C  C247  1  0.17256000  0.19366000  0.20295000  1.0
  C  C248  1  0.16350000  0.18050000  0.28046000  1.0
  C  C249  1  0.18428000  0.14556000  0.27922000  1.0
  C  C250  1  0.19170000  0.15784000  0.20078000  1.0
  C  C251  1  0.19924000  0.13462000  0.23876000  1.0
  Fe  Fe252  1  0.75688000  0.80406000  0.81750000  1.0
  Fe  Fe253  1  0.67156000  0.75886000  0.74508000  1.0
  Fe  Fe254  1  0.59066000  0.72580000  0.67107000  1.0
  Fe  Fe255  1  0.20392000  0.97198000  0.81292000  1.0
  Fe  Fe256  1  0.23890000  0.92018000  0.74955000  1.0
  Fe  Fe257  1  0.29680000  0.90700000  0.69110000  1.0
  Fe  Fe258  1  0.03823000  0.23782000  0.81169000  1.0
  Fe  Fe259  1  0.08176500  0.32109500  0.75110000  1.0
  Fe  Fe260  1  0.11727500  0.39769000  0.67875500  1.0
  Fe  Fe261  1  0.88096000  0.28723000  0.31535500  1.0
  Fe  Fe262  1  0.91119000  0.23850000  0.24972000  1.0
  Fe  Fe263  1  0.96189000  0.19794000  0.19504000  1.0
  Fe  Fe264  1  0.71514000  0.61232000  0.30720000  1.0
  Fe  Fe265  1  0.76448000  0.68384000  0.24479000  1.0
  Fe  Fe266  1  0.80638000  0.76520000  0.18189000  1.0
  Fe  Fe267  1  0.39590000  0.11590000  0.32249000  1.0
  Fe  Fe268  1  0.31820000  0.08272000  0.24842000  1.0
  Fe  Fe269  1  0.23596000  0.03102000  0.18591000  1.0
  H  H270  1  0.65610000  0.66102000  0.12414000  1.0
  H  H271  1  0.80526000  0.70622000  0.05845000  1.0
  H  H272  1  0.61368000  0.65776000  0.05341000  1.0
  H  H273  1  0.59456000  0.68532000  0.98062000  1.0
  H  H274  1  0.74620000  0.73486000  0.87932000  1.0
  H  H275  1  0.59178000  0.71918000  0.90730000  1.0
  H  H276  1  0.28882000  0.97904000  0.35593000  1.0
  H  H277  1  0.27336000  0.09886000  0.42832000  1.0
  H  H278  1  0.26124000  0.92080000  0.42035000  1.0
  H  H279  1  0.24386000  0.87838000  0.49236000  1.0
  H  H280  1  0.24310000  0.99944000  0.60621000  1.0
  H  H281  1  0.24132000  0.85422000  0.56866000  1.0
  H  H282  1  0.01980000  0.37538000  0.88185500  1.0
  H  H283  1  0.07062000  0.26386000  0.92207500  1.0
  H  H284  1  0.98855000  0.37572000  0.95668500  1.0
  H  H285  1  0.96812000  0.36752000  0.03946000  1.0
  H  H286  1  0.96106000  0.20098000  0.09204000  1.0
  H  H287  1  0.94554000  0.34056000  0.11662000  1.0
  H  H288  1  0.71268000  0.69472000  0.63692000  1.0
  H  H289  1  0.70106000  0.81552000  0.56268000  1.0
  H  H290  1  0.75052000  0.67358000  0.57330000  1.0
  H  H291  1  0.77620000  0.65528000  0.50307000  1.0
  H  H292  1  0.74664000  0.75486000  0.38423000  1.0
  H  H293  1  0.78310000  0.63358000  0.42769000  1.0
  H  H294  1  0.37322000  0.03348000  0.11943000  1.0
  H  H295  1  0.26688000  0.08454000  0.06691000  1.0
  H  H296  1  0.37598000  0.99629000  0.04714000  1.0
  H  H297  1  0.36886000  0.97046000  0.96347000  1.0
  H  H298  1  0.20020000  0.95572000  0.90747000  1.0
  H  H299  1  0.34184000  0.94280000  0.88719000  1.0
  H  H300  1  0.12087000  0.27712000  0.58319500  1.0
  H  H301  1  0.98934000  0.30218000  0.61486500  1.0
  H  H302  1  0.08281000  0.24593000  0.51002000  1.0
  H  H303  1  0.03541000  0.22621000  0.43364500  1.0
  H  H304  1  0.88047000  0.25616000  0.44486000  1.0
  H  H305  1  0.98409000  0.22134000  0.36663000  1.0
  H  H306  1  0.54592000  0.54338000  0.73072000  1.0
  H  H307  1  0.49566000  0.65522000  0.77056000  1.0
  H  H308  1  0.45364000  0.46810000  0.74160000  1.0
  H  H309  1  0.35823000  0.40689000  0.74573500  1.0
  H  H310  1  0.26114000  0.50886000  0.76208500  1.0
  H  H311  1  0.25942000  0.35978000  0.73792000  1.0
  H  H312  1  0.40382000  0.95318000  0.83078000  1.0
  H  H313  1  0.38494000  0.90372000  0.69675000  1.0
  H  H314  1  0.46316000  0.91404000  0.84259000  1.0
  H  H315  1  0.52742000  0.87484000  0.83740000  1.0
  H  H316  1  0.51450000  0.80466000  0.68825000  1.0
  H  H317  1  0.58220000  0.83256000  0.81773000  1.0
  H  H318  1  0.14015000  0.48490000  0.68035500  1.0
  H  H319  1  0.07077000  0.48807000  0.80486500  1.0
  H  H320  1  0.18009000  0.57953000  0.67364000  1.0
  H  H321  1  0.19480000  0.66294000  0.66607000  1.0
  H  H322  1  0.16522000  0.73622000  0.80328000  1.0
  H  H323  1  0.22514000  0.75748000  0.67119000  1.0
  H  H324  1  0.94054000  0.40246000  0.17723000  1.0
  H  H325  1  0.88626000  0.38793000  0.31017000  1.0
  H  H326  1  0.90816000  0.46702000  0.16337000  1.0
  H  H327  1  0.87752000  0.53562000  0.16537000  1.0
  H  H328  1  0.79574000  0.52916000  0.30913000  1.0
  H  H329  1  0.83700000  0.59302000  0.17904000  1.0
  H  H330  1  0.65288000  0.52704000  0.30839000  1.0
  H  H331  1  0.57864000  0.52086000  0.18419000  1.0
  H  H332  1  0.60696000  0.43250000  0.31251000  1.0
  H  H333  1  0.54116000  0.35062000  0.32167000  1.0
  H  H334  1  0.42448000  0.27026000  0.19172000  1.0
  H  H335  1  0.47174000  0.26078000  0.32430000  1.0
  H  H336  1  0.75316000  0.21758000  0.17723000  1.0
  H  H337  1  0.72010000  0.16478000  0.31055000  1.0
  H  H338  1  0.65516000  0.17433000  0.16294000  1.0
  H  H339  1  0.55670000  0.13908000  0.16559000  1.0
  H  H340  1  0.48404000  0.04940000  0.30717000  1.0
  H  H341  1  0.46003000  0.10065000  0.18121000  1.0
  H  H342  1  0.81554000  0.91368000  0.67195000  1.0
  H  H343  1  0.78118000  0.95400000  0.79841000  1.0
  H  H344  1  0.86128000  0.01014000  0.65131000  1.0
  H  H345  1  0.91182000  0.10851000  0.64761500  1.0
  H  H346  1  0.87878000  0.18672000  0.77952500  1.0
  H  H347  1  0.96497000  0.20533000  0.66090500  1.0
  H  H348  1  0.08588000  0.89300000  0.68452000  1.0
  H  H349  1  0.04174000  0.84588000  0.81842000  1.0
  H  H350  1  0.98990000  0.83974000  0.66365000  1.0
  H  H351  1  0.89072000  0.79798000  0.66149000  1.0
  H  H352  1  0.81408000  0.69450000  0.79716000  1.0
  H  H353  1  0.79426000  0.75300000  0.67400000  1.0
  H  H354  1  0.09371000  0.18471000  0.68616500  1.0
  H  H355  1  0.17468000  0.21246000  0.80987000  1.0
  H  H356  1  0.14248000  0.13973000  0.65957500  1.0
  H  H357  1  0.18668000  0.08796000  0.65088000  1.0
  H  H358  1  0.31248000  0.12152000  0.77260000  1.0
  H  H359  1  0.22678000  0.03226000  0.66046000  1.0
  H  H360  1  0.80234000  0.06068000  0.17541000  1.0
  H  H361  1  0.87192000  0.05816000  0.29892500  1.0
  H  H362  1  0.73782000  0.96474000  0.18168000  1.0
  H  H363  1  0.68522000  0.87410000  0.19420000  1.0
  H  H364  1  0.76202000  0.82206000  0.31608000  1.0
  H  H365  1  0.66328000  0.78108000  0.20191000  1.0
  H  H366  1  0.93906000  0.74164000  0.18638000  1.0
  H  H367  1  0.94472000  0.83206000  0.30023000  1.0
  H  H368  1  0.03342000  0.76858000  0.19599000  1.0
  H  H369  1  0.12372000  0.80426000  0.20983000  1.0
  H  H370  1  0.18100000  0.94728000  0.32052000  1.0
  H  H371  1  0.21754000  0.87254000  0.21538500  1.0
  H  H372  1  0.08874000  0.31582000  0.20947000  1.0
  H  H373  1  0.06748000  0.24670000  0.33672000  1.0
  H  H374  1  0.14338000  0.27646000  0.18824000  1.0
  H  H375  1  0.16662000  0.21040000  0.17348000  1.0
  H  H376  1  0.18762000  0.12660000  0.30839000  1.0
  H  H377  1  0.20140000  0.14882000  0.16909000  1.0
  O  O378  1  0.78852000  0.86566000  0.78740000  1.0
  O  O379  1  0.72568000  0.83414000  0.73279000  1.0
  O  O380  1  0.72274000  0.73524000  0.73277000  1.0
  O  O381  1  0.77412000  0.75530000  0.79658000  1.0
  O  O382  1  0.65894000  0.75454000  0.68100000  1.0
  O  O383  1  0.62018000  0.78476000  0.75929000  1.0
  O  O384  1  0.61416000  0.68429000  0.75531000  1.0
  O  O385  1  0.61692000  0.73916000  0.61680000  1.0
  O  O386  1  0.56994000  0.76870000  0.69640000  1.0
  O  O387  1  0.56100000  0.65852000  0.69296000  1.0
  O  O388  1  0.72116000  0.81076000  0.86385000  1.0
  O  O389  1  0.68814000  0.75894000  0.80835000  1.0
  O  O390  1  0.13690000  0.91732000  0.80697000  1.0
  O  O391  1  0.16654000  0.91158000  0.73838000  1.0
  O  O392  1  0.27790000  0.99702000  0.74090000  1.0
  O  O393  1  0.21476000  0.01436000  0.76627000  1.0
  O  O394  1  0.24242000  0.91836000  0.68150000  1.0
  O  O395  1  0.20368000  0.84144000  0.75432000  1.0
  O  O396  1  0.30668000  0.92366000  0.76829000  1.0
  O  O397  1  0.30008000  0.90554000  0.63525000  1.0
  O  O398  1  0.27166000  0.83986000  0.71624000  1.0
  O  O399  1  0.35464000  0.96678000  0.71331000  1.0
  O  O400  1  0.26332000  0.00600000  0.84578000  1.0
  O  O401  1  0.23214000  0.92776000  0.81360000  1.0
  O  O402  1  0.09085000  0.22306000  0.80675500  1.0
  O  O403  1  0.08761000  0.25552000  0.73982750  1.0
  O  O404  1  0.00495000  0.28540000  0.74167500  1.0
  O  O405  1  0.98859000  0.20570000  0.76917500  1.0
  O  O406  1  0.08749500  0.32828000  0.68522250  1.0
  O  O407  1  0.16011500  0.35986500  0.75733000  1.0
  O  O408  1  0.08329000  0.39042500  0.76386500  1.0
  O  O409  1  0.11556500  0.37928500  0.62361250  1.0
  O  O410  1  0.18258000  0.42930000  0.70801000  1.0
  O  O411  1  0.06082000  0.40372000  0.69854000  1.0
  O  O412  1  0.00485000  0.24175000  0.85683500  1.0
  O  O413  1  0.07369000  0.30974000  0.81694000  1.0
  O  O414  1  0.81670000  0.25980000  0.28587500  1.0
  O  O415  1  0.83353000  0.20612000  0.24014500  1.0
  O  O416  1  0.91915000  0.30971000  0.23379500  1.0
  O  O417  1  0.93950000  0.34876000  0.29819000  1.0
  O  O418  1  0.92275000  0.23164000  0.18697000  1.0
  O  O419  1  0.89508000  0.16229000  0.26017500  1.0
  O  O420  1  0.98782000  0.27576000  0.26012000  1.0
  O  O421  1  0.00209000  0.25211000  0.15919000  1.0
  O  O422  1  0.90498000  0.13250000  0.19315500  1.0
  O  O423  1  0.99720000  0.20547000  0.24637000  1.0
  O  O424  1  0.87555000  0.27506000  0.37084500  1.0
  O  O425  1  0.90646000  0.24303000  0.31586500  1.0
  O  O426  1  0.74512000  0.57464000  0.28181000  1.0
  O  O427  1  0.80174000  0.64340000  0.23681000  1.0
  O  O428  1  0.69638000  0.61624000  0.22873000  1.0
  O  O429  1  0.65344000  0.60872000  0.28754000  1.0
  O  O430  1  0.76206000  0.69408000  0.17878000  1.0
  O  O431  1  0.83696000  0.74760000  0.25813000  1.0
  O  O432  1  0.72492000  0.72070000  0.25429000  1.0
  O  O433  1  0.79528000  0.76518000  0.12740000  1.0
  O  O434  1  0.87330000  0.78016000  0.19271000  1.0
  O  O435  1  0.77800000  0.79714000  0.21508000  1.0
  O  O436  1  0.71566000  0.61010000  0.36292000  1.0
  O  O437  1  0.76414000  0.68054000  0.31300000  1.0
  O  O438  1  0.43026000  0.17796000  0.29220000  1.0
  O  O439  1  0.36572000  0.16262000  0.23957000  1.0
  O  O440  1  0.38160000  0.07412000  0.23670000  1.0
  O  O441  1  0.40836000  0.06376000  0.30347000  1.0
  O  O442  1  0.30764000  0.06982000  0.18249000  1.0
  O  O443  1  0.25762000  0.09780000  0.25886000  1.0
  O  O444  1  0.27668000  0.00626000  0.26347000  1.0
  O  O445  1  0.23618000  0.02110000  0.13216000  1.0
  O  O446  1  0.20590000  0.07028000  0.19766000  1.0
  O  O447  1  0.20956000  0.96872000  0.21337000  1.0
  O  O448  1  0.37054000  0.11162000  0.37663000  1.0
  O  O449  1  0.32802000  0.08970000  0.31260000  1.0
  O  O450  1  0.81582000  0.76460000  0.96750000  1.0
  O  O451  1  0.78490000  0.66936000  0.95031000  1.0
  O  O452  1  0.28700000  0.09112000  0.53160000  1.0
  O  O453  1  0.18882000  0.03954000  0.51919000  1.0
  O  O454  1  0.98046000  0.18030000  0.98760000  1.0
  O  O455  1  0.06218000  0.23864000  0.03048000  1.0
  O  O456  1  0.68412000  0.78474000  0.45981000  1.0
  O  O457  1  0.78068000  0.85122000  0.46851000  1.0
  O  O458  1  0.18266000  0.98818000  0.00956000  1.0
  O  O459  1  0.24016000  0.06368000  0.96055000  1.0
  O  O460  1  0.88142000  0.23537000  0.54897000  1.0
  O  O461  1  0.94428000  0.32973000  0.52792500  1.0
  O  O462  1  0.37185000  0.59479000  0.82070000  1.0
  O  O463  1  0.37622000  0.61438000  0.74200000  1.0
  O  O464  1  0.39854000  0.79882000  0.68412000  1.0
  O  O465  1  0.47648000  0.88442000  0.65877000  1.0
  O  O466  1  0.06466000  0.60218000  0.81695000  1.0
  O  O467  1  0.15186000  0.61950000  0.84703500  1.0
  O  O468  1  0.78804000  0.41198000  0.31995000  1.0
  O  O469  1  0.87530000  0.48744000  0.34527000  1.0
  O  O470  1  0.45872000  0.40452000  0.17696000  1.0
  O  O471  1  0.52540000  0.38662000  0.14123000  1.0
  O  O472  1  0.60072000  0.05416000  0.32122000  1.0
  O  O473  1  0.59906000  0.13670000  0.34213000  1.0
  O  O474  1  0.77420000  0.06354000  0.79947000  1.0
  O  O475  1  0.86500000  0.08328000  0.82263000  1.0
  O  O476  1  0.93798000  0.73344000  0.82916000  1.0
  O  O477  1  0.90802000  0.80061000  0.83523000  1.0
  O  O478  1  0.28876000  0.21924000  0.80496500  1.0
  O  O479  1  0.22125000  0.12523000  0.82390000  1.0
  O  O480  1  0.85530000  0.93650000  0.31267000  1.0
  O  O481  1  0.79174000  0.94790000  0.35978000  1.0
  O  O482  1  0.06920000  0.93170000  0.31421000  1.0
  O  O483  1  0.05282000  0.85932000  0.36630000  1.0
  O  O484  1  0.17412000  0.22328000  0.36086000  1.0
  O  O485  1  0.08456000  0.14730000  0.34079000  1.0
  S  S486  1  0.76904000  0.70826000  0.96754000  1.0
  S  S487  1  0.24090000  0.03972000  0.51482000  1.0
  S  S488  1  0.01472000  0.23500000  0.00703500  1.0
  S  S489  1  0.73744000  0.79402000  0.47564000  1.0
  S  S490  1  0.23656000  0.01894000  0.98806000  1.0
  S  S491  1  0.93457000  0.27331000  0.52872000  1.0
  S  S492  1  0.37907000  0.57863000  0.77609500  1.0
  S  S493  1  0.44726000  0.85050000  0.69730000  1.0
  S  S494  1  0.12004000  0.61258000  0.80658000  1.0
  S  S495  1  0.84150000  0.45818000  0.30669000  1.0
  S  S496  1  0.50492000  0.39488000  0.18360000  1.0
  S  S497  1  0.60104000  0.10362000  0.30531000  1.0
  S  S498  1  0.82723000  0.07073000  0.78512500  1.0
  S  S499  1  0.92676000  0.77216000  0.80522000  1.0
  S  S500  1  0.24386000  0.16680000  0.78864000  1.0
  S  S501  1  0.80440000  0.93904000  0.31444000  1.0
  S  S502  1  0.06310000  0.87704000  0.31987000  1.0
  S  S503  1  0.13512000  0.19519000  0.32470000  1.0
