# generated using pymatgen
data_ZnH6(C3N2)4
_symmetry_space_group_name_H-M   'P 1'
_cell_length_a   25.71560000
_cell_length_b   33.87650000
_cell_length_c   33.87650000
_cell_angle_alpha   91.73800000
_cell_angle_beta   90.99100000
_cell_angle_gamma   90.00000000
_symmetry_Int_Tables_number   1
_chemical_formula_structural   ZnH6(C3N2)4
_chemical_formula_sum   'Zn24 H144 C288 N192'
_cell_volume   29493.67354734
_cell_formula_units_Z   24
loop_
 _symmetry_equiv_pos_site_id
 _symmetry_equiv_pos_as_xyz
  1  'x, y, z'
loop_
 _atom_site_type_symbol
 _atom_site_label
 _atom_site_symmetry_multiplicity
 _atom_site_fract_x
 _atom_site_fract_y
 _atom_site_fract_z
 _atom_site_occupancy
  Zn  Zn0  1  0.51596000  0.11220000  0.30564000  1.0
  Zn  Zn1  1  0.69945000  0.13064000  0.19098000  1.0
  Zn  Zn2  1  0.61220000  0.14537000  0.25679000  1.0
  Zn  Zn3  1  0.43441000  0.68372000  0.14523000  1.0
  Zn  Zn4  1  0.27622000  0.82631000  0.10920000  1.0
  Zn  Zn5  1  0.36508000  0.76307000  0.13443000  1.0
  Zn  Zn6  1  0.51490000  0.87309000  0.69903000  1.0
  Zn  Zn7  1  0.68193000  0.91805000  0.83927000  1.0
  Zn  Zn8  1  0.59479000  0.88649000  0.77435000  1.0
  Zn  Zn9  1  0.30222000  0.21361000  0.91465000  1.0
  Zn  Zn10  1  0.45867000  0.35593000  0.87589000  1.0
  Zn  Zn11  1  0.39028000  0.27600000  0.88756000  1.0
  Zn  Zn12  1  0.03296000  0.37048000  0.19653000  1.0
  Zn  Zn13  1  0.19104000  0.41940000  0.34168000  1.0
  Zn  Zn14  1  0.10584000  0.38810000  0.27515000  1.0
  Zn  Zn15  1  0.78025000  0.70548000  0.40200000  1.0
  Zn  Zn16  1  0.94265000  0.84516000  0.39750000  1.0
  Zn  Zn17  1  0.86900000  0.76905000  0.38119000  1.0
  Zn  Zn18  1  0.00071000  0.60541000  0.81576000  1.0
  Zn  Zn19  1  0.18457000  0.63621000  0.70268000  1.0
  Zn  Zn20  1  0.09961000  0.64120000  0.77121000  1.0
  Zn  Zn21  1  0.95367000  0.17204000  0.64411000  1.0
  Zn  Zn22  1  0.79649000  0.31406000  0.60385000  1.0
  Zn  Zn23  1  0.88335000  0.25088000  0.63347000  1.0
  H  H24  1  0.59736000  0.98959000  0.25413000  1.0
  H  H25  1  0.58932000  0.92674000  0.28685000  1.0
  H  H26  1  0.75805000  0.99893000  0.29157000  1.0
  H  H27  1  0.79779000  0.94475000  0.32992000  1.0
  H  H28  1  0.69996000  0.84862000  0.36458000  1.0
  H  H29  1  0.62619000  0.87654000  0.32968000  1.0
  H  H30  1  0.26009000  0.65672000  0.08139000  1.0
  H  H31  1  0.21574000  0.59770000  0.05596000  1.0
  H  H32  1  0.22157000  0.71796000  0.97506000  1.0
  H  H33  1  0.17411000  0.68184000  0.92092000  1.0
  H  H34  1  0.12315000  0.56242000  0.93829000  1.0
  H  H35  1  0.16507000  0.56305000  0.00350000  1.0
  H  H36  1  0.57697000  0.03152000  0.72437000  1.0
  H  H37  1  0.57759000  0.09117000  0.68586000  1.0
  H  H38  1  0.74433000  0.03326000  0.73339000  1.0
  H  H39  1  0.79307000  0.08500000  0.69922000  1.0
  H  H40  1  0.70770000  0.17363000  0.63609000  1.0
  H  H41  1  0.62579000  0.14331000  0.65337000  1.0
  H  H42  1  0.27195000  0.41560000  0.18423000  1.0
  H  H43  1  0.35090000  0.41058000  0.14569000  1.0
  H  H44  1  0.19131000  0.33909000  0.09930000  1.0
  H  H45  1  0.23969000  0.31112000  0.04155000  1.0
  H  H46  1  0.39970000  0.34543000  0.02685000  1.0
  H  H47  1  0.39762000  0.38504000  0.08780000  1.0
  H  H48  1  0.90888000  0.67964000  0.28273000  1.0
  H  H49  1  0.93034000  0.64180000  0.22347000  1.0
  H  H50  1  0.93125000  0.57678000  0.35338000  1.0
  H  H51  1  0.96281000  0.51389000  0.31983000  1.0
  H  H52  1  0.97571000  0.51032000  0.19276000  1.0
  H  H53  1  0.95268000  0.57947000  0.19039000  1.0
  H  H54  1  0.94644000  0.66837000  0.67875000  1.0
  H  H55  1  0.87501000  0.69467000  0.64012000  1.0
  H  H56  1  0.05680000  0.70832000  0.59390000  1.0
  H  H57  1  0.02381000  0.74190000  0.53397000  1.0
  H  H58  1  0.85878000  0.75597000  0.51841000  1.0
  H  H59  1  0.84279000  0.72803000  0.58182000  1.0
  H  H60  1  0.03021000  0.35893000  0.59024000  1.0
  H  H61  1  0.09973000  0.40757000  0.60094000  1.0
  H  H62  1  0.92748000  0.42946000  0.66260000  1.0
  H  H63  1  0.96110000  0.48986000  0.69691000  1.0
  H  H64  1  0.11835000  0.52703000  0.67513000  1.0
  H  H65  1  0.13155000  0.46984000  0.63167000  1.0
  H  H66  1  0.04385000  0.17723000  0.50508000  1.0
  H  H67  1  0.09255000  0.18836000  0.44572000  1.0
  H  H68  1  0.99365000  0.29903000  0.50846000  1.0
  H  H69  1  0.02440000  0.34419000  0.45607000  1.0
  H  H70  1  0.12552000  0.29690000  0.36601000  1.0
  H  H71  1  0.12262000  0.23211000  0.39488000  1.0
  H  H72  1  0.09963000  0.48857000  0.75955000  1.0
  H  H73  1  0.09575000  0.42287000  0.78714000  1.0
  H  H74  1  0.25991000  0.50070000  0.79671000  1.0
  H  H75  1  0.30224000  0.44663000  0.83176000  1.0
  H  H76  1  0.21187000  0.34452000  0.86119000  1.0
  H  H77  1  0.13626000  0.37103000  0.82683000  1.0
  H  H78  1  0.80321000  0.13876000  0.55924000  1.0
  H  H79  1  0.76452000  0.08160000  0.52541000  1.0
  H  H80  1  0.74153000  0.21509000  0.46998000  1.0
  H  H81  1  0.69150000  0.18496000  0.41303000  1.0
  H  H82  1  0.65947000  0.05997000  0.41094000  1.0
  H  H83  1  0.71112000  0.05261000  0.47139000  1.0
  H  H84  1  0.18732000  0.68797000  0.15330000  1.0
  H  H85  1  0.10895000  0.65651000  0.17682000  1.0
  H  H86  1  0.28197000  0.59597000  0.20285000  1.0
  H  H87  1  0.23975000  0.54189000  0.23756000  1.0
  H  H88  1  0.07294000  0.54039000  0.24598000  1.0
  H  H89  1  0.06673000  0.60251000  0.21134000  1.0
  H  H90  1  0.75413000  0.90276000  0.67809000  1.0
  H  H91  1  0.82941000  0.89819000  0.63590000  1.0
  H  H92  1  0.66487000  0.83046000  0.59437000  1.0
  H  H93  1  0.70850000  0.80364000  0.53317000  1.0
  H  H94  1  0.86719000  0.83869000  0.51283000  1.0
  H  H95  1  0.87029000  0.87527000  0.57504000  1.0
  H  H96  1  0.41447000  0.18606000  0.79562000  1.0
  H  H97  1  0.42712000  0.14934000  0.73409000  1.0
  H  H98  1  0.45046000  0.08256000  0.86217000  1.0
  H  H99  1  0.47416000  0.01982000  0.82498000  1.0
  H  H100  1  0.46724000  0.01806000  0.69744000  1.0
  H  H101  1  0.44523000  0.08761000  0.69815000  1.0
  H  H102  1  0.58584000  0.27072000  0.18379000  1.0
  H  H103  1  0.56172000  0.33156000  0.15180000  1.0
  H  H104  1  0.55713000  0.20373000  0.07528000  1.0
  H  H105  1  0.52382000  0.23878000  0.01631000  1.0
  H  H106  1  0.50678000  0.36553000  0.02367000  1.0
  H  H107  1  0.53360000  0.36641000  0.09284000  1.0
  H  H108  1  0.50072000  0.87304000  0.07120000  1.0
  H  H109  1  0.56995000  0.92272000  0.07219000  1.0
  H  H110  1  0.41992000  0.93881000  0.16203000  1.0
  H  H111  1  0.46052000  0.99863000  0.19240000  1.0
  H  H112  1  0.60591000  0.03995000  0.14690000  1.0
  H  H113  1  0.60782000  0.98467000  0.09958000  1.0
  H  H114  1  0.52058000  0.68401000  0.00552000  1.0
  H  H115  1  0.57225000  0.69362000  0.94738000  1.0
  H  H116  1  0.47585000  0.80703000  0.00753000  1.0
  H  H117  1  0.50985000  0.85091000  0.95532000  1.0
  H  H118  1  0.61406000  0.80102000  0.86870000  1.0
  H  H119  1  0.60723000  0.73651000  0.89771000  1.0
  H  H120  1  0.00352000  0.28428000  0.35552000  1.0
  H  H121  1  0.92849000  0.26132000  0.39203000  1.0
  H  H122  1  0.92301000  0.25802000  0.24529000  1.0
  H  H123  1  0.83649000  0.23234000  0.24516000  1.0
  H  H124  1  0.75828000  0.21457000  0.35472000  1.0
  H  H125  1  0.83625000  0.23756000  0.39181000  1.0
  H  H126  1  0.01752000  0.69800000  0.31262000  1.0
  H  H127  1  0.09893000  0.66581000  0.29418000  1.0
  H  H128  1  0.07604000  0.80971000  0.27463000  1.0
  H  H129  1  0.16064000  0.81170000  0.24156000  1.0
  H  H130  1  0.25831000  0.70814000  0.24113000  1.0
  H  H131  1  0.18960000  0.67053000  0.27149000  1.0
  H  H132  1  0.74369000  0.81994000  0.70301000  1.0
  H  H133  1  0.82426000  0.80119000  0.66997000  1.0
  H  H134  1  0.80669000  0.78197000  0.81410000  1.0
  H  H135  1  0.88993000  0.74608000  0.81489000  1.0
  H  H136  1  0.98496000  0.74523000  0.71132000  1.0
  H  H137  1  0.91558000  0.77775000  0.67421000  1.0
  H  H138  1  0.27469000  0.32987000  0.77392000  1.0
  H  H139  1  0.20784000  0.36318000  0.73521000  1.0
  H  H140  1  0.17023000  0.23242000  0.79101000  1.0
  H  H141  1  0.08463000  0.23161000  0.75716000  1.0
  H  H142  1  0.03388000  0.33424000  0.69468000  1.0
  H  H143  1  0.11760000  0.36624000  0.70878000  1.0
  H  H144  1  0.48827000  0.78798000  0.86021000  1.0
  H  H145  1  0.41554000  0.76490000  0.89940000  1.0
  H  H146  1  0.39876000  0.76634000  0.75315000  1.0
  H  H147  1  0.31252000  0.74154000  0.75599000  1.0
  H  H148  1  0.24348000  0.71753000  0.86782000  1.0
  H  H149  1  0.32343000  0.74066000  0.90239000  1.0
  H  H150  1  0.52383000  0.19331000  0.80806000  1.0
  H  H151  1  0.60254000  0.15835000  0.78854000  1.0
  H  H152  1  0.58519000  0.30175000  0.76408000  1.0
  H  H153  1  0.67042000  0.30099000  0.73169000  1.0
  H  H154  1  0.76258000  0.19459000  0.73224000  1.0
  H  H155  1  0.69195000  0.15943000  0.76305000  1.0
  H  H156  1  0.25063000  0.32185000  0.20038000  1.0
  H  H157  1  0.32785000  0.30191000  0.16378000  1.0
  H  H158  1  0.32577000  0.29177000  0.30994000  1.0
  H  H159  1  0.40913000  0.25605000  0.30789000  1.0
  H  H160  1  0.49005000  0.24461000  0.19790000  1.0
  H  H161  1  0.41838000  0.27691000  0.16349000  1.0
  H  H162  1  0.76168000  0.83209000  0.27029000  1.0
  H  H163  1  0.69514000  0.87043000  0.23587000  1.0
  H  H164  1  0.65340000  0.73596000  0.28081000  1.0
  H  H165  1  0.56736000  0.74051000  0.25167000  1.0
  H  H166  1  0.51824000  0.84781000  0.19676000  1.0
  H  H167  1  0.60378000  0.87742000  0.21129000  1.0
  C  C168  1  0.53508000  0.05582000  0.20322000  1.0
  C  C169  1  0.64014000  0.12603000  0.37190000  1.0
  C  C170  1  0.49082000  0.21994000  0.27309000  1.0
  C  C171  1  0.74930000  0.20323000  0.27390000  1.0
  C  C172  1  0.58849000  0.19733000  0.15269000  1.0
  C  C173  1  0.67801000  0.03891000  0.25759000  1.0
  C  C174  1  0.48996000  0.77083000  0.20807000  1.0
  C  C175  1  0.28727000  0.66485000  0.16344000  1.0
  C  C176  1  0.46552000  0.73766000  0.04751000  1.0
  C  C177  1  0.27112000  0.72620000  0.04705000  1.0
  C  C178  1  0.41533000  0.87260000  0.11582000  1.0
  C  C179  1  0.25083000  0.78200000  0.21213000  1.0
  C  C180  1  0.48811000  0.97190000  0.75854000  1.0
  C  C181  1  0.65929000  0.87101000  0.66612000  1.0
  C  C182  1  0.48851000  0.79837000  0.77980000  1.0
  C  C183  1  0.72787000  0.82353000  0.78176000  1.0
  C  C184  1  0.56725000  0.86780000  0.88900000  1.0
  C  C185  1  0.65814000  0.99173000  0.75355000  1.0
  C  C186  1  0.26497000  0.26196000  0.81431000  1.0
  C  C187  1  0.42133000  0.16140000  0.86929000  1.0
  C  C188  1  0.32368000  0.30162000  0.99219000  1.0
  C  C189  1  0.49493000  0.30296000  0.97371000  1.0
  C  C190  1  0.30958000  0.37478000  0.86530000  1.0
  C  C191  1  0.50445000  0.27222000  0.80534000  1.0
  C  C192  1  0.98962000  0.46564000  0.25579000  1.0
  C  C193  1  0.17888000  0.38092000  0.16933000  1.0
  C  C194  1  0.00889000  0.29374000  0.27533000  1.0
  C  C195  1  0.24131000  0.32871000  0.27962000  1.0
  C  C196  1  0.07895000  0.36311000  0.38886000  1.0
  C  C197  1  0.15831000  0.49839000  0.26263000  1.0
  C  C198  1  0.74894000  0.76042000  0.30431000  1.0
  C  C199  1  0.90224000  0.65589000  0.35661000  1.0
  C  C200  1  0.78987000  0.79572000  0.47976000  1.0
  C  C201  1  0.94754000  0.76565000  0.48190000  1.0
  C  C202  1  0.79925000  0.87251000  0.36507000  1.0
  C  C203  1  0.99634000  0.77657000  0.31344000  1.0
  C  C204  1  0.03370000  0.54656000  0.71718000  1.0
  C  C205  1  0.11915000  0.62110000  0.88675000  1.0
  C  C206  1  0.97676000  0.71393000  0.78387000  1.0
  C  C207  1  0.22948000  0.70838000  0.78676000  1.0
  C  C208  1  0.04846000  0.67297000  0.66527000  1.0
  C  C209  1  0.17792000  0.54047000  0.76645000  1.0
  C  C210  1  0.00667000  0.25842000  0.70977000  1.0
  C  C211  1  0.80488000  0.15197000  0.65685000  1.0
  C  C212  1  0.98667000  0.22903000  0.54789000  1.0
  C  C213  1  0.79824000  0.21489000  0.53975000  1.0
  C  C214  1  0.93428000  0.36089000  0.62020000  1.0
  C  C215  1  0.76080000  0.26905000  0.70456000  1.0
  C  C216  1  0.67846000  0.99807000  0.27021000  1.0
  C  C217  1  0.63125000  0.97742000  0.26885000  1.0
  C  C218  1  0.62649000  0.94187000  0.28789000  1.0
  C  C219  1  0.66880000  0.92673000  0.30907000  1.0
  C  C220  1  0.71735000  0.94668000  0.30976000  1.0
  C  C221  1  0.72188000  0.98243000  0.28999000  1.0
  C  C222  1  0.76004000  0.93052000  0.33037000  1.0
  C  C223  1  0.75433000  0.89473000  0.34977000  1.0
  C  C224  1  0.70534000  0.87627000  0.34989000  1.0
  C  C225  1  0.66309000  0.89202000  0.32975000  1.0
  C  C226  1  0.24345000  0.69161000  0.03008000  1.0
  C  C227  1  0.24204000  0.65731000  0.05233000  1.0
  C  C228  1  0.21677000  0.62351000  0.03784000  1.0
  C  C229  1  0.19322000  0.62311000  0.00037000  1.0
  C  C230  1  0.19540000  0.65717000  0.97708000  1.0
  C  C231  1  0.21992000  0.69163000  0.99244000  1.0
  C  C232  1  0.17269000  0.65602000  0.93906000  1.0
  C  C233  1  0.14636000  0.62194000  0.92507000  1.0
  C  C234  1  0.14352000  0.58882000  0.94874000  1.0
  C  C235  1  0.16733000  0.58919000  0.98592000  1.0
  C  C236  1  0.66057000  0.02854000  0.73181000  1.0
  C  C237  1  0.61394000  0.04496000  0.71791000  1.0
  C  C238  1  0.61429000  0.07893000  0.69586000  1.0
  C  C239  1  0.66154000  0.09647000  0.68635000  1.0
  C  C240  1  0.70913000  0.07992000  0.69963000  1.0
  C  C241  1  0.70824000  0.04629000  0.72307000  1.0
  C  C242  1  0.75648000  0.09728000  0.68900000  1.0
  C  C243  1  0.75637000  0.13116000  0.66599000  1.0
  C  C244  1  0.70877000  0.14738000  0.65357000  1.0
  C  C245  1  0.66186000  0.13016000  0.66351000  1.0
  C  C246  1  0.22562000  0.37821000  0.14435000  1.0
  C  C247  1  0.27123000  0.39778000  0.15712000  1.0
  C  C248  1  0.31643000  0.39485000  0.13515000  1.0
  C  C249  1  0.31726000  0.37182000  0.10011000  1.0
  C  C250  1  0.27205000  0.35113000  0.08690000  1.0
  C  C251  1  0.22613000  0.35486000  0.10905000  1.0
  C  C252  1  0.27394000  0.32727000  0.05189000  1.0
  C  C253  1  0.31994000  0.32513000  0.02974000  1.0
  C  C254  1  0.36388000  0.34656000  0.04321000  1.0
  C  C255  1  0.36277000  0.36927000  0.07812000  1.0
  C  C256  1  0.91817000  0.63090000  0.32238000  1.0
  C  C257  1  0.91896000  0.64877000  0.28552000  1.0
  C  C258  1  0.93104000  0.62716000  0.25149000  1.0
  C  C259  1  0.94336000  0.58714000  0.25349000  1.0
  C  C260  1  0.94488000  0.56851000  0.29046000  1.0
  C  C261  1  0.93130000  0.59060000  0.32495000  1.0
  C  C262  1  0.95996000  0.52838000  0.29178000  1.0
  C  C263  1  0.97095000  0.50696000  0.25649000  1.0
  C  C264  1  0.96687000  0.52587000  0.22025000  1.0
  C  C265  1  0.95402000  0.56557000  0.21880000  1.0
  C  C266  1  0.00672000  0.68649000  0.63896000  1.0
  C  C267  1  0.95524000  0.68275000  0.65151000  1.0
  C  C268  1  0.91432000  0.69786000  0.62958000  1.0
  C  C269  1  0.92407000  0.71692000  0.59453000  1.0
  C  C270  1  0.97577000  0.72081000  0.58107000  1.0
  C  C271  1  0.01704000  0.70523000  0.60350000  1.0
  C  C272  1  0.98473000  0.73950000  0.54516000  1.0
  C  C273  1  0.94234000  0.75286000  0.52262000  1.0
  C  C274  1  0.89173000  0.74808000  0.53635000  1.0
  C  C275  1  0.88256000  0.73122000  0.57226000  1.0
  C  C276  1  0.97391000  0.39161000  0.62486000  1.0
  C  C277  1  0.02277000  0.38528000  0.60820000  1.0
  C  C278  1  0.06238000  0.41287000  0.61445000  1.0
  C  C279  1  0.05404000  0.44653000  0.63853000  1.0
  C  C280  1  0.00520000  0.45263000  0.65652000  1.0
  C  C281  1  0.96495000  0.42533000  0.64884000  1.0
  C  C282  1  0.99798000  0.48543000  0.68236000  1.0
  C  C283  1  0.03860000  0.51253000  0.68934000  1.0
  C  C284  1  0.08624000  0.50670000  0.67016000  1.0
  C  C285  1  0.09403000  0.47391000  0.64530000  1.0
  C  C286  1  0.01519000  0.23725000  0.51132000  1.0
  C  C287  1  0.04339000  0.20651000  0.49308000  1.0
  C  C288  1  0.07126000  0.21281000  0.45904000  1.0
  C  C289  1  0.07206000  0.25016000  0.44253000  1.0
  C  C290  1  0.04395000  0.28188000  0.46019000  1.0
  C  C291  1  0.01521000  0.27503000  0.49456000  1.0
  C  C292  1  0.04568000  0.31957000  0.44309000  1.0
  C  C293  1  0.07517000  0.32512000  0.40896000  1.0
  C  C294  1  0.10268000  0.29317000  0.39225000  1.0
  C  C295  1  0.10101000  0.25613000  0.40868000  1.0
  C  C296  1  0.18042000  0.49864000  0.77560000  1.0
  C  C297  1  0.13442000  0.47642000  0.77290000  1.0
  C  C298  1  0.13199000  0.43920000  0.78911000  1.0
  C  C299  1  0.17531000  0.42410000  0.80916000  1.0
  C  C300  1  0.22239000  0.44587000  0.81112000  1.0
  C  C301  1  0.22476000  0.48305000  0.79393000  1.0
  C  C302  1  0.26585000  0.43042000  0.83094000  1.0
  C  C303  1  0.26269000  0.39367000  0.84888000  1.0
  C  C304  1  0.21526000  0.37300000  0.84775000  1.0
  C  C305  1  0.17205000  0.38796000  0.82789000  1.0
  C  C306  1  0.77501000  0.18120000  0.51708000  1.0
  C  C307  1  0.78163000  0.14319000  0.53197000  1.0
  C  C308  1  0.75941000  0.11038000  0.51274000  1.0
  C  C309  1  0.73055000  0.11470000  0.47784000  1.0
  C  C310  1  0.72457000  0.15259000  0.46163000  1.0
  C  C311  1  0.74642000  0.18589000  0.48176000  1.0
  C  C312  1  0.69629000  0.15625000  0.42595000  1.0
  C  C313  1  0.67247000  0.12287000  0.40774000  1.0
  C  C314  1  0.67774000  0.08586000  0.42469000  1.0
  C  C315  1  0.70715000  0.08167000  0.45914000  1.0
  C  C316  1  0.24032000  0.64405000  0.17614000  1.0
  C  C317  1  0.19117000  0.66077000  0.16910000  1.0
  C  C318  1  0.14634000  0.64289000  0.18260000  1.0
  C  C319  1  0.14981000  0.60792000  0.20347000  1.0
  C  C320  1  0.19911000  0.59072000  0.21096000  1.0
  C  C321  1  0.24411000  0.60886000  0.19699000  1.0
  C  C322  1  0.20229000  0.55554000  0.23197000  1.0
  C  C323  1  0.15672000  0.53705000  0.24419000  1.0
  C  C324  1  0.10823000  0.55433000  0.23648000  1.0
  C  C325  1  0.10473000  0.58971000  0.21672000  1.0
  C  C326  1  0.70384000  0.86738000  0.63915000  1.0
  C  C327  1  0.75077000  0.88585000  0.65050000  1.0
  C  C328  1  0.79387000  0.88324000  0.62641000  1.0
  C  C329  1  0.79121000  0.86175000  0.59050000  1.0
  C  C330  1  0.74472000  0.84190000  0.57857000  1.0
  C  C331  1  0.70084000  0.84527000  0.60306000  1.0
  C  C332  1  0.74348000  0.81941000  0.54250000  1.0
  C  C333  1  0.78757000  0.81818000  0.51816000  1.0
  C  C334  1  0.83251000  0.83914000  0.53054000  1.0
  C  C335  1  0.83458000  0.86012000  0.56634000  1.0
  C  C336  1  0.43228000  0.13712000  0.83341000  1.0
  C  C337  1  0.42593000  0.15535000  0.79695000  1.0
  C  C338  1  0.43277000  0.13433000  0.76166000  1.0
  C  C339  1  0.44581000  0.09434000  0.76188000  1.0
  C  C340  1  0.45323000  0.07517000  0.79821000  1.0
  C  C341  1  0.44583000  0.09682000  0.83411000  1.0
  C  C342  1  0.46744000  0.03483000  0.79755000  1.0
  C  C343  1  0.47211000  0.01378000  0.76117000  1.0
  C  C344  1  0.46320000  0.03337000  0.72576000  1.0
  C  C345  1  0.45091000  0.07326000  0.72607000  1.0
  C  C346  1  0.57327000  0.23300000  0.13168000  1.0
  C  C347  1  0.57404000  0.26923000  0.15290000  1.0
  C  C348  1  0.56035000  0.30401000  0.13469000  1.0
  C  C349  1  0.54521000  0.30322000  0.09484000  1.0
  C  C350  1  0.54322000  0.26683000  0.07302000  1.0
  C  C351  1  0.55807000  0.23177000  0.09160000  1.0
  C  C352  1  0.52636000  0.26644000  0.03320000  1.0
  C  C353  1  0.51351000  0.30206000  0.01505000  1.0
  C  C354  1  0.51705000  0.33783000  0.03694000  1.0
  C  C355  1  0.53215000  0.33839000  0.07654000  1.0
  C  C356  1  0.45532000  0.90321000  0.11596000  1.0
  C  C357  1  0.49809000  0.89847000  0.09126000  1.0
  C  C358  1  0.53751000  0.92670000  0.09192000  1.0
  C  C359  1  0.53536000  0.95937000  0.11824000  1.0
  C  C360  1  0.49297000  0.96377000  0.14419000  1.0
  C  C361  1  0.45259000  0.93586000  0.14232000  1.0
  C  C362  1  0.49230000  0.99557000  0.17190000  1.0
  C  C363  1  0.53298000  0.02327000  0.17328000  1.0
  C  C364  1  0.57392000  0.01913000  0.14644000  1.0
  C  C365  1  0.57524000  0.98743000  0.11935000  1.0
  C  C366  1  0.49459000  0.74481000  0.01103000  1.0
  C  C367  1  0.52190000  0.71323000  0.99344000  1.0
  C  C368  1  0.55151000  0.71865000  0.96012000  1.0
  C  C369  1  0.55487000  0.75591000  0.94369000  1.0
  C  C370  1  0.52722000  0.78836000  0.96047000  1.0
  C  C371  1  0.49678000  0.78243000  0.99414000  1.0
  C  C372  1  0.53111000  0.82583000  0.94324000  1.0
  C  C373  1  0.56256000  0.83051000  0.91003000  1.0
  C  C374  1  0.58990000  0.79796000  0.89436000  1.0
  C  C375  1  0.58592000  0.76107000  0.91080000  1.0
  C  C376  1  0.96884000  0.27288000  0.29762000  1.0
  C  C377  1  0.97010000  0.27291000  0.33914000  1.0
  C  C378  1  0.92689000  0.26023000  0.36003000  1.0
  C  C379  1  0.88154000  0.24766000  0.33963000  1.0
  C  C380  1  0.88091000  0.24635000  0.29795000  1.0
  C  C381  1  0.92457000  0.25832000  0.27733000  1.0
  C  C382  1  0.83632000  0.23365000  0.27721000  1.0
  C  C383  1  0.79191000  0.22195000  0.29724000  1.0
  C  C384  1  0.79194000  0.22405000  0.33870000  1.0
  C  C385  1  0.83664000  0.23671000  0.35982000  1.0
  C  C386  1  0.04114000  0.75630000  0.29521000  1.0
  C  C387  1  0.04755000  0.71545000  0.29945000  1.0
  C  C388  1  0.09431000  0.69711000  0.28935000  1.0
  C  C389  1  0.13502000  0.71918000  0.27403000  1.0
  C  C390  1  0.12769000  0.75978000  0.26704000  1.0
  C  C391  1  0.08101000  0.77823000  0.27829000  1.0
  C  C392  1  0.16711000  0.78110000  0.24880000  1.0
  C  C393  1  0.21418000  0.76259000  0.23857000  1.0
  C  C394  1  0.22243000  0.72310000  0.24859000  1.0
  C  C395  1  0.18296000  0.70142000  0.26565000  1.0
  C  C396  1  0.76991000  0.80270000  0.76094000  1.0
  C  C397  1  0.77456000  0.80660000  0.72004000  1.0
  C  C398  1  0.82076000  0.79624000  0.70128000  1.0
  C  C399  1  0.86227000  0.78043000  0.72303000  1.0
  C  C400  1  0.85614000  0.77321000  0.76361000  1.0
  C  C401  1  0.81038000  0.78524000  0.78251000  1.0
  C  C402  1  0.89575000  0.75389000  0.78446000  1.0
  C  C403  1  0.94193000  0.74287000  0.76560000  1.0
  C  C404  1  0.94958000  0.75343000  0.72637000  1.0
  C  C405  1  0.90974000  0.77158000  0.70502000  1.0
  C  C406  1  0.22727000  0.27879000  0.78571000  1.0
  C  C407  1  0.23767000  0.31522000  0.76870000  1.0
  C  C408  1  0.19927000  0.33447000  0.74679000  1.0
  C  C409  1  0.15003000  0.31728000  0.74074000  1.0
  C  C410  1  0.13997000  0.27954000  0.75562000  1.0
  C  C411  1  0.17849000  0.26076000  0.77844000  1.0
  C  C412  1  0.09172000  0.26121000  0.74715000  1.0
  C  C413  1  0.05318000  0.28042000  0.72471000  1.0
  C  C414  1  0.06266000  0.31889000  0.71219000  1.0
  C  C415  1  0.11077000  0.33704000  0.71988000  1.0
  C  C416  1  0.44898000  0.77873000  0.80368000  1.0
  C  C417  1  0.45331000  0.77769000  0.84509000  1.0
  C  C418  1  0.41146000  0.76492000  0.86750000  1.0
  C  C419  1  0.36452000  0.75315000  0.84877000  1.0
  C  C420  1  0.36064000  0.75347000  0.80721000  1.0
  C  C421  1  0.40274000  0.76575000  0.78507000  1.0
  C  C422  1  0.31467000  0.74144000  0.78802000  1.0
  C  C423  1  0.27235000  0.72782000  0.80935000  1.0
  C  C424  1  0.27549000  0.72833000  0.85079000  1.0
  C  C425  1  0.32136000  0.74105000  0.87043000  1.0
  C  C426  1  0.54855000  0.25020000  0.78756000  1.0
  C  C427  1  0.55377000  0.20949000  0.79342000  1.0
  C  C428  1  0.59914000  0.18954000  0.78269000  1.0
  C  C429  1  0.64022000  0.20988000  0.76574000  1.0
  C  C430  1  0.63467000  0.25043000  0.75782000  1.0
  C  C431  1  0.58886000  0.27037000  0.76892000  1.0
  C  C432  1  0.67520000  0.27028000  0.73917000  1.0
  C  C433  1  0.72162000  0.25040000  0.72957000  1.0
  C  C434  1  0.72748000  0.21067000  0.73953000  1.0
  C  C435  1  0.68691000  0.19043000  0.75689000  1.0
  C  C436  1  0.28324000  0.30885000  0.25776000  1.0
  C  C437  1  0.28364000  0.31029000  0.21642000  1.0
  C  C438  1  0.32783000  0.29908000  0.19556000  1.0
  C  C439  1  0.37145000  0.28444000  0.21568000  1.0
  C  C440  1  0.36988000  0.28004000  0.25707000  1.0
  C  C441  1  0.32625000  0.29331000  0.27800000  1.0
  C  C442  1  0.41146000  0.26166000  0.27661000  1.0
  C  C443  1  0.45475000  0.24832000  0.25539000  1.0
  C  C444  1  0.45760000  0.25549000  0.21489000  1.0
  C  C445  1  0.41619000  0.27328000  0.19510000  1.0
  C  C446  1  0.71227000  0.78113000  0.27807000  1.0
  C  C447  1  0.72384000  0.81890000  0.26450000  1.0
  C  C448  1  0.68565000  0.84101000  0.24520000  1.0
  C  C449  1  0.63544000  0.82555000  0.23893000  1.0
  C  C450  1  0.62431000  0.78700000  0.25112000  1.0
  C  C451  1  0.66262000  0.76517000  0.27065000  1.0
  C  C452  1  0.57516000  0.77057000  0.24327000  1.0
  C  C453  1  0.53679000  0.79188000  0.22309000  1.0
  C  C454  1  0.54712000  0.83091000  0.21266000  1.0
  C  C455  1  0.59618000  0.84764000  0.22050000  1.0
  N  N456  1  0.47300000  0.18826000  0.29178000  1.0
  N  N457  1  0.50922000  0.05712000  0.23773000  1.0
  N  N458  1  0.57923000  0.11662000  0.33087000  1.0
  N  N459  1  0.65552000  0.14265000  0.33828000  1.0
  N  N460  1  0.51271000  0.16373000  0.29154000  1.0
  N  N461  1  0.61591000  0.13659000  0.31336000  1.0
  N  N462  1  0.52961000  0.08814000  0.25709000  1.0
  N  N463  1  0.56562000  0.10478000  0.23598000  1.0
  N  N464  1  0.55311000  0.17888000  0.27368000  1.0
  N  N465  1  0.56988000  0.08536000  0.20183000  1.0
  N  N466  1  0.59249000  0.10966000  0.36775000  1.0
  N  N467  1  0.54040000  0.21436000  0.26135000  1.0
  N  N468  1  0.70123000  0.05260000  0.22519000  1.0
  N  N469  1  0.75816000  0.18440000  0.23914000  1.0
  N  N470  1  0.63809000  0.15334000  0.17469000  1.0
  N  N471  1  0.57485000  0.19199000  0.19032000  1.0
  N  N472  1  0.68299000  0.08904000  0.22291000  1.0
  N  N473  1  0.60682000  0.16472000  0.20335000  1.0
  N  N474  1  0.71361000  0.16728000  0.23009000  1.0
  N  N475  1  0.67850000  0.17484000  0.25741000  1.0
  N  N476  1  0.65132000  0.09718000  0.25224000  1.0
  N  N477  1  0.70003000  0.19720000  0.28609000  1.0
  N  N478  1  0.62922000  0.17411000  0.14276000  1.0
  N  N479  1  0.64673000  0.06608000  0.27439000  1.0
  N  N480  1  0.47198000  0.70512000  0.06923000  1.0
  N  N481  1  0.49035000  0.73166000  0.20004000  1.0
  N  N482  1  0.36471000  0.67916000  0.15148000  1.0
  N  N483  1  0.28754000  0.70328000  0.15428000  1.0
  N  N484  1  0.44000000  0.71063000  0.09889000  1.0
  N  N485  1  0.33686000  0.71149000  0.14786000  1.0
  N  N486  1  0.44747000  0.72534000  0.17909000  1.0
  N  N487  1  0.42199000  0.75865000  0.17354000  1.0
  N  N488  1  0.41583000  0.74481000  0.09627000  1.0
  N  N489  1  0.44800000  0.78816000  0.19125000  1.0
  N  N490  1  0.33555000  0.64924000  0.16200000  1.0
  N  N491  1  0.43075000  0.76275000  0.06412000  1.0
  N  N492  1  0.23440000  0.80624000  0.18361000  1.0
  N  N493  1  0.24959000  0.76229000  0.05322000  1.0
  N  N494  1  0.34368000  0.84335000  0.11188000  1.0
  N  N495  1  0.42520000  0.83488000  0.12489000  1.0
  N  N496  1  0.27348000  0.80683000  0.15891000  1.0
  N  N497  1  0.37920000  0.81760000  0.12284000  1.0
  N  N498  1  0.28180000  0.77994000  0.07912000  1.0
  N  N499  1  0.31971000  0.75584000  0.08910000  1.0
  N  N500  1  0.31193000  0.78394000  0.17079000  1.0
  N  N501  1  0.31424000  0.72191000  0.06942000  1.0
  N  N502  1  0.36439000  0.87866000  0.10793000  1.0
  N  N503  1  0.29896000  0.76789000  0.20439000  1.0
  N  N504  1  0.47761000  0.81079000  0.74318000  1.0
  N  N505  1  0.47709000  0.94833000  0.72664000  1.0
  N  N506  1  0.58378000  0.87352000  0.68854000  1.0
  N  N507  1  0.66441000  0.87837000  0.70546000  1.0
  N  N508  1  0.51480000  0.83627000  0.73643000  1.0
  N  N509  1  0.61633000  0.87879000  0.71874000  1.0
  N  N510  1  0.50703000  0.91723000  0.73136000  1.0
  N  N511  1  0.53555000  0.92115000  0.76401000  1.0
  N  N512  1  0.54664000  0.84066000  0.76726000  1.0
  N  N513  1  0.52467000  0.95542000  0.78205000  1.0
  N  N514  1  0.60880000  0.86785000  0.65505000  1.0
  N  N515  1  0.53142000  0.81663000  0.79497000  1.0
  N  N516  1  0.68423000  0.98449000  0.78754000  1.0
  N  N517  1  0.73828000  0.85140000  0.81000000  1.0
  N  N518  1  0.61869000  0.90448000  0.85828000  1.0
  N  N519  1  0.55040000  0.86860000  0.85110000  1.0
  N  N520  1  0.66570000  0.94987000  0.79777000  1.0
  N  N521  1  0.58383000  0.89060000  0.83236000  1.0
  N  N522  1  0.69461000  0.87154000  0.81266000  1.0
  N  N523  1  0.65889000  0.85740000  0.78752000  1.0
  N  N524  1  0.63092000  0.93649000  0.77164000  1.0
  N  N525  1  0.67885000  0.82722000  0.76714000  1.0
  N  N526  1  0.61090000  0.88975000  0.89342000  1.0
  N  N527  1  0.62506000  0.96221000  0.74339000  1.0
  N  N528  1  0.29726000  0.26799000  0.98276000  1.0
  N  N529  1  0.25068000  0.23829000  0.84358000  1.0
  N  N530  1  0.36681000  0.19337000  0.90385000  1.0
  N  N531  1  0.43728000  0.19932000  0.87159000  1.0
  N  N532  1  0.31683000  0.25629000  0.94836000  1.0
  N  N533  1  0.40217000  0.21873000  0.89242000  1.0
  N  N534  1  0.29201000  0.23752000  0.86720000  1.0
  N  N535  1  0.33005000  0.25931000  0.85373000  1.0
  N  N536  1  0.35290000  0.28100000  0.93717000  1.0
  N  N537  1  0.31429000  0.27527000  0.82032000  1.0
  N  N538  1  0.37635000  0.15759000  0.88882000  1.0
  N  N539  1  0.35806000  0.30996000  0.96400000  1.0
  N  N540  1  0.50731000  0.31077000  0.81608000  1.0
  N  N541  1  0.50019000  0.33492000  0.95132000  1.0
  N  N542  1  0.38822000  0.36045000  0.87456000  1.0
  N  N543  1  0.31085000  0.33655000  0.87502000  1.0
  N  N544  1  0.46729000  0.31636000  0.83949000  1.0
  N  N545  1  0.36071000  0.32827000  0.87963000  1.0
  N  N546  1  0.47066000  0.32682000  0.91999000  1.0
  N  N547  1  0.44801000  0.29203000  0.92266000  1.0
  N  N548  1  0.44153000  0.28313000  0.84438000  1.0
  N  N549  1  0.46236000  0.27600000  0.95636000  1.0
  N  N550  1  0.35798000  0.39020000  0.86460000  1.0
  N  N551  1  0.46395000  0.25480000  0.82293000  1.0
  N  N552  1  0.00018000  0.30522000  0.23808000  1.0
  N  N553  1  0.98357000  0.44159000  0.22355000  1.0
  N  N554  1  0.10203000  0.37731000  0.18889000  1.0
  N  N555  1  0.18057000  0.38850000  0.20879000  1.0
  N  N556  1  0.03516000  0.33291000  0.23305000  1.0
  N  N557  1  0.13180000  0.38511000  0.22023000  1.0
  N  N558  1  0.01667000  0.41264000  0.22943000  1.0
  N  N559  1  0.04250000  0.41822000  0.26316000  1.0
  N  N560  1  0.06331000  0.33958000  0.26554000  1.0
  N  N561  1  0.02652000  0.45156000  0.28067000  1.0
  N  N562  1  0.12978000  0.37367000  0.15648000  1.0
  N  N563  1  0.04812000  0.31483000  0.29257000  1.0
  N  N564  1  0.18638000  0.48967000  0.29530000  1.0
  N  N565  1  0.25116000  0.35601000  0.30857000  1.0
  N  N566  1  0.12875000  0.40246000  0.35993000  1.0
  N  N567  1  0.06208000  0.36515000  0.35100000  1.0
  N  N568  1  0.17147000  0.45329000  0.30276000  1.0
  N  N569  1  0.09439000  0.38904000  0.33337000  1.0
  N  N570  1  0.20665000  0.37497000  0.31229000  1.0
  N  N571  1  0.17114000  0.36061000  0.28713000  1.0
  N  N572  1  0.13672000  0.44038000  0.27638000  1.0
  N  N573  1  0.19184000  0.33145000  0.26580000  1.0
  N  N574  1  0.12164000  0.38594000  0.39433000  1.0
  N  N575  1  0.12748000  0.46810000  0.25059000  1.0
  N  N576  1  0.76719000  0.76031000  0.47066000  1.0
  N  N577  1  0.73284000  0.73478000  0.33130000  1.0
  N  N578  1  0.84593000  0.68575000  0.39141000  1.0
  N  N579  1  0.91598000  0.69426000  0.35886000  1.0
  N  N580  1  0.78998000  0.74844000  0.43737000  1.0
  N  N581  1  0.87993000  0.71212000  0.37999000  1.0
  N  N582  1  0.77332000  0.73131000  0.35529000  1.0
  N  N583  1  0.81242000  0.75353000  0.34422000  1.0
  N  N584  1  0.82438000  0.77467000  0.42674000  1.0
  N  N585  1  0.79840000  0.77229000  0.31201000  1.0
  N  N586  1  0.85733000  0.65039000  0.37599000  1.0
  N  N587  1  0.82534000  0.80454000  0.45265000  1.0
  N  N588  1  0.00138000  0.81087000  0.33442000  1.0
  N  N589  1  0.96055000  0.80277000  0.47172000  1.0
  N  N590  1  0.87375000  0.85460000  0.38415000  1.0
  N  N591  1  0.79866000  0.83297000  0.36495000  1.0
  N  N592  1  0.95792000  0.81349000  0.35446000  1.0
  N  N593  1  0.84601000  0.82270000  0.37564000  1.0
  N  N594  1  0.94155000  0.80550000  0.43525000  1.0
  N  N595  1  0.91756000  0.77248000  0.42421000  1.0
  N  N596  1  0.92771000  0.78243000  0.34708000  1.0
  N  N597  1  0.92037000  0.74696000  0.45271000  1.0
  N  N598  1  0.84652000  0.88691000  0.37657000  1.0
  N  N599  1  0.95104000  0.75841000  0.32146000  1.0
  N  N600  1  0.95774000  0.68151000  0.80067000  1.0
  N  N601  1  0.00309000  0.54849000  0.74934000  1.0
  N  N602  1  0.06214000  0.60992000  0.84310000  1.0
  N  N603  1  0.13674000  0.63786000  0.85383000  1.0
  N  N604  1  0.99781000  0.65737000  0.80204000  1.0
  N  N605  1  0.09964000  0.63037000  0.82713000  1.0
  N  N606  1  0.01942000  0.58089000  0.76874000  1.0
  N  N607  1  0.05784000  0.59744000  0.75012000  1.0
  N  N608  1  0.03962000  0.67361000  0.78714000  1.0
  N  N609  1  0.06739000  0.57679000  0.71741000  1.0
  N  N610  1  0.07237000  0.60385000  0.88062000  1.0
  N  N611  1  0.02754000  0.70926000  0.77486000  1.0
  N  N612  1  0.19775000  0.55696000  0.73406000  1.0
  N  N613  1  0.23717000  0.69307000  0.75026000  1.0
  N  N614  1  0.11865000  0.65150000  0.68859000  1.0
  N  N615  1  0.04155000  0.66984000  0.70421000  1.0
  N  N616  1  0.17728000  0.59286000  0.73480000  1.0
  N  N617  1  0.08654000  0.65746000  0.71806000  1.0
  N  N618  1  0.19438000  0.67333000  0.74191000  1.0
  N  N619  1  0.16135000  0.67581000  0.77139000  1.0
  N  N620  1  0.14716000  0.59792000  0.76568000  1.0
  N  N621  1  0.18270000  0.69731000  0.80084000  1.0
  N  N622  1  0.09693000  0.66187000  0.65471000  1.0
  N  N623  1  0.14613000  0.56537000  0.78599000  1.0
  N  N624  1  0.99342000  0.19602000  0.56894000  1.0
  N  N625  1  0.00814000  0.21944000  0.70077000  1.0
  N  N626  1  0.88331000  0.16673000  0.64891000  1.0
  N  N627  1  0.80591000  0.19061000  0.64889000  1.0
  N  N628  1  0.96079000  0.20043000  0.59841000  1.0
  N  N629  1  0.85561000  0.19910000  0.64512000  1.0
  N  N630  1  0.96543000  0.21289000  0.67945000  1.0
  N  N631  1  0.93902000  0.24593000  0.67448000  1.0
  N  N632  1  0.93594000  0.23438000  0.59621000  1.0
  N  N633  1  0.96422000  0.27534000  0.69309000  1.0
  N  N634  1  0.85330000  0.13638000  0.65715000  1.0
  N  N635  1  0.95104000  0.25323000  0.56465000  1.0
  N  N636  1  0.74736000  0.29342000  0.67534000  1.0
  N  N637  1  0.77642000  0.25104000  0.54491000  1.0
  N  N638  1  0.86345000  0.33138000  0.61085000  1.0
  N  N639  1  0.94329000  0.32303000  0.62900000  1.0
  N  N640  1  0.78886000  0.29403000  0.65299000  1.0
  N  N641  1  0.89779000  0.30560000  0.62364000  1.0
  N  N642  1  0.80501000  0.26792000  0.57371000  1.0
  N  N643  1  0.84127000  0.24346000  0.58602000  1.0
  N  N644  1  0.82607000  0.27111000  0.66692000  1.0
  N  N645  1  0.83815000  0.20996000  0.56527000  1.0
  N  N646  1  0.88428000  0.36694000  0.60921000  1.0
  N  N647  1  0.80959000  0.25487000  0.69955000  1.0
