# generated using pymatgen
data_CdH5C8NO4
_symmetry_space_group_name_H-M   'P 1'
_cell_length_a   12.07183333
_cell_length_b   40.30000000
_cell_length_c   40.48774375
_cell_angle_alpha   60.59971954
_cell_angle_beta   87.08113645
_cell_angle_gamma   88.53200000
_symmetry_Int_Tables_number   1
_chemical_formula_structural   CdH5C8NO4
_chemical_formula_sum   'Cd27 H135 C216 N27 O108'
_cell_volume   17138.05358866
_cell_formula_units_Z   27
loop_
 _symmetry_equiv_pos_site_id
 _symmetry_equiv_pos_as_xyz
  1  'x, y, z'
loop_
 _atom_site_type_symbol
 _atom_site_label
 _atom_site_symmetry_multiplicity
 _atom_site_fract_x
 _atom_site_fract_y
 _atom_site_fract_z
 _atom_site_occupancy
  C  C0  1  0.77568000  0.48387000  0.51086000  1.0
  C  C1  1  0.04685000  0.55757000  0.45626000  1.0
  C  C2  1  0.00735000  0.46889333  0.57994667  1.0
  C  C3  1  0.12639000  0.47411333  0.41693333  1.0
  C  C4  1  0.09187000  0.38541333  0.52362667  1.0
  C  C5  1  0.26525000  0.49335667  0.49583333  1.0
  C  C6  1  0.31134000  0.05119000  0.45154000  1.0
  C  C7  1  0.09763000  0.05461000  0.51806000  1.0
  C  C8  1  0.03360000  0.07644000  0.39430000  1.0
  C  C9  1  0.03628000  0.94268000  0.56532000  1.0
  C  C10  1  0.99248000  0.94294000  0.46423000  1.0
  C  C11  1  0.83652000  0.02800000  0.48513000  1.0
  C  C12  1  0.83735000  0.47490333  0.95847000  1.0
  C  C13  1  0.08890000  0.45143000  0.92802000  1.0
  C  C14  1  0.06275000  0.57092333  0.92170000  1.0
  C  C15  1  0.17911000  0.40746000  0.05938000  1.0
  C  C16  1  0.05880000  0.51693667  0.03681333  1.0
  C  C17  1  0.32887000  0.49631000  0.96825000  1.0
  C  C18  1  0.45122000  0.06378000  0.19603000  1.0
  C  C19  1  0.21013000  0.11749000  0.22516000  1.0
  C  C20  1  0.55253000  0.16084000  0.17056000  1.0
  C  C21  1  0.08410000  0.16247000  0.10531000  1.0
  C  C22  1  0.43941000  0.13748000  0.07671000  1.0
  C  C23  1  0.31802000  0.23736000  0.08538000  1.0
  C  C24  1  0.46851000  0.68934000  0.07511000  1.0
  C  C25  1  0.26487000  0.59771000  0.12913000  1.0
  C  C26  1  0.56938000  0.62487333  0.17171000  1.0
  C  C27  1  0.07287000  0.68652000  0.16603000  1.0
  C  C28  1  0.38783000  0.71212000  0.18831000  1.0
  C  C29  1  0.24453000  0.59630667  0.23845333  1.0
  C  C30  1  0.38637000  0.18322000  0.73378000  1.0
  C  C31  1  0.20582000  0.20869000  0.63027000  1.0
  C  C32  1  0.54482000  0.16886667  0.66703333  1.0
  C  C33  1  0.05524000  0.10867000  0.71176000  1.0
  C  C34  1  0.35270000  0.04289000  0.74942000  1.0
  C  C35  1  0.29149000  0.10483000  0.63557000  1.0
  C  C36  1  0.89927000  0.88911000  0.74303000  1.0
  C  C37  1  0.03092000  0.83711000  0.83512000  1.0
  C  C38  1  0.72240000  0.90604000  0.82336000  1.0
  C  C39  1  0.79439000  0.73307000  0.86537000  1.0
  C  C40  1  0.55446000  0.81878000  0.80012000  1.0
  C  C41  1  0.67428000  0.79848000  0.90923000  1.0
  C  C42  1  0.69154000  0.24417333  0.92390000  1.0
  C  C43  1  0.59344000  0.32189000  0.81184667  1.0
  C  C44  1  0.84302000  0.34571000  0.87374000  1.0
  C  C45  1  0.73282000  0.22847000  0.82169000  1.0
  C  C46  1  0.07016000  0.27148000  0.82409000  1.0
  C  C47  1  0.87626000  0.34073000  0.75426333  1.0
  C  C48  1  0.87922000  0.73485000  0.35211000  1.0
  C  C49  1  0.02329000  0.83283000  0.28745000  1.0
  C  C50  1  0.72060000  0.79457000  0.25181000  1.0
  C  C51  1  0.82257000  0.85932000  0.36819000  1.0
  C  C52  1  0.52822000  0.81306000  0.34964000  1.0
  C  C53  1  0.69516000  0.90698000  0.25839000  1.0
  C  C54  1  0.50036000  0.46272333  0.55154667  1.0
  C  C55  1  0.42625000  0.53056333  0.49144667  1.0
  C  C56  1  0.57553000  0.48727667  0.52291667  1.0
  C  C57  1  0.53965000  0.52315667  0.49529667  1.0
  C  C58  1  0.35071000  0.50168333  0.51482333  1.0
  C  C59  1  0.38726000  0.47049667  0.54812667  1.0
  C  C60  1  0.58846000  0.08661000  0.45880000  1.0
  C  C61  1  0.50134000  0.02498000  0.45470000  1.0
  C  C62  1  0.65815000  0.05723000  0.46178000  1.0
  C  C63  1  0.61448000  0.02699000  0.45838000  1.0
  C  C64  1  0.43122000  0.05388000  0.45288000  1.0
  C  C65  1  0.47564000  0.08500000  0.45440000  1.0
  C  C66  1  0.61612000  0.51224333  0.93854000  1.0
  C  C67  1  0.44653000  0.46497333  0.94142000  1.0
  C  C68  1  0.64100000  0.47516333  0.94547000  1.0
  C  C69  1  0.55667000  0.45298333  0.94355000  1.0
  C  C70  1  0.42111000  0.49846333  0.94269000  1.0
  C  C71  1  0.50623000  0.52397000  0.93676333  1.0
  C  C72  1  0.76996000  0.16563000  0.09973000  1.0
  C  C73  1  0.92655000  0.15967000  0.15056000  1.0
  C  C74  1  0.73225000  0.16679000  0.13261000  1.0
  C  C75  1  0.81271000  0.16362000  0.15817000  1.0
  C  C76  1  0.96334000  0.15910000  0.11722000  1.0
  C  C77  1  0.88299000  0.16196000  0.09207000  1.0
  C  C78  1  0.76587000  0.69653000  0.16485000  1.0
  C  C79  1  0.92936000  0.64900000  0.15960000  1.0
  C  C80  1  0.73552000  0.66040000  0.17101000  1.0
  C  C81  1  0.81943000  0.63679000  0.16813000  1.0
  C  C82  1  0.95972000  0.68373333  0.15646667  1.0
  C  C83  1  0.87706000  0.70776000  0.15852000  1.0
  C  C84  1  0.75322000  0.09639000  0.72532000  1.0
  C  C85  1  0.90484000  0.15638000  0.69503000  1.0
  C  C86  1  0.71705000  0.13296000  0.69905000  1.0
  C  C87  1  0.79332000  0.16343000  0.68541000  1.0
  C  C88  1  0.94180000  0.11902000  0.71776000  1.0
  C  C89  1  0.86392000  0.08947000  0.73460000  1.0
  C  C90  1  0.26680000  0.81889000  0.78221000  1.0
  C  C91  1  0.23459000  0.83710000  0.84063000  1.0
  C  C92  1  0.35726000  0.82865000  0.79576000  1.0
  C  C93  1  0.34064000  0.83687667  0.82569333  1.0
  C  C94  1  0.14353000  0.82850000  0.82629000  1.0
  C  C95  1  0.16068000  0.81817000  0.79779000  1.0
  C  C96  1  0.36129000  0.29615000  0.83541000  1.0
  C  C97  1  0.22790000  0.30225000  0.77843000  1.0
  C  C98  1  0.40329000  0.31422000  0.79734000  1.0
  C  C99  1  0.33445000  0.31743000  0.76912000  1.0
  C  C100  1  0.18658000  0.28390333  0.81626667  1.0
  C  C101  1  0.25292000  0.28177000  0.84461000  1.0
  C  C102  1  0.27923000  0.84058000  0.33417000  1.0
  C  C103  1  0.19357000  0.79480000  0.30742000  1.0
  C  C104  1  0.33384000  0.80659000  0.34119000  1.0
  C  C105  1  0.29008000  0.78410000  0.32746000  1.0
  C  C106  1  0.13626000  0.82790000  0.30133000  1.0
  C  C107  1  0.17940000  0.85079000  0.31493000  1.0
  C  C108  1  0.06915000  0.28145333  0.55191667  1.0
  C  C109  1  0.09817000  0.32649667  0.58586333  1.0
  C  C110  1  0.09403000  0.26409000  0.59030000  1.0
  C  C111  1  0.10584000  0.28686333  0.60732667  1.0
  C  C112  1  0.07896000  0.34396000  0.54705667  1.0
  C  C113  1  0.06305000  0.32126000  0.53025000  1.0
  C  C114  1  0.01733000  0.12324000  0.28838000  1.0
  C  C115  1  0.09548000  0.05530000  0.34796000  1.0
  C  C116  1  0.08336000  0.09870000  0.28064000  1.0
  C  C117  1  0.12002000  0.06425000  0.31044000  1.0
  C  C118  1  0.03540000  0.08109000  0.35592000  1.0
  C  C119  1  0.99434000  0.11471000  0.32581000  1.0
  C  C120  1  0.15064000  0.53074000  0.09811000  1.0
  C  C121  1  0.10836000  0.60434667  0.08636333  1.0
  C  C122  1  0.07295000  0.55347000  0.07149000  1.0
  C  C123  1  0.05010000  0.59002667  0.06670333  1.0
  C  C124  1  0.18989000  0.58215000  0.11166000  1.0
  C  C125  1  0.20826000  0.54488000  0.11767000  1.0
  C  C126  1  0.89454000  0.63267000  0.90027000  1.0
  C  C127  1  0.98544000  0.70461000  0.87548000  1.0
  C  C128  1  0.00800000  0.63581000  0.90450000  1.0
  C  C129  1  0.05322000  0.67207333  0.89158667  1.0
  C  C130  1  0.87087000  0.70104000  0.87334000  1.0
  C  C131  1  0.82682000  0.66486667  0.88505333  1.0
  C  C132  1  0.04495000  0.41312000  0.68178000  1.0
  C  C133  1  0.92522000  0.40807000  0.62717333  1.0
  C  C134  1  0.94857000  0.39099000  0.69273333  1.0
  C  C135  1  0.89223000  0.38677000  0.66554000  1.0
  C  C136  1  0.01336000  0.43391000  0.61605000  1.0
  C  C137  1  0.07763000  0.43436000  0.64360333  1.0
  C  C138  1  0.94290000  0.91456000  0.38946000  1.0
  C  C139  1  0.95856000  0.88073000  0.46814000  1.0
  C  C140  1  0.91708000  0.87565000  0.41247000  1.0
  C  C141  1  0.92794000  0.85901000  0.45179000  1.0
  C  C142  1  0.98295000  0.91956000  0.44551000  1.0
  C  C143  1  0.97594000  0.93634000  0.40591000  1.0
  C  C144  1  0.91548000  0.64487000  0.38199000  1.0
  C  C145  1  0.10110000  0.62503667  0.42627000  1.0
  C  C146  1  0.96342000  0.67160000  0.38962000  1.0
  C  C147  1  0.06042000  0.66214667  0.40979000  1.0
  C  C148  1  0.04248000  0.59659333  0.42396667  1.0
  C  C149  1  0.95509000  0.60733667  0.39909667  1.0
  C  C150  1  0.00497000  0.94249000  0.64084000  1.0
  C  C151  1  0.96785000  0.86711000  0.69750000  1.0
  C  C152  1  0.03701000  0.91264000  0.63401000  1.0
  C  C153  1  0.01834000  0.87492000  0.66250000  1.0
  C  C154  1  0.93828000  0.89699000  0.70472000  1.0
  C  C155  1  0.95684000  0.93475000  0.67595000  1.0
  C  C156  1  0.96307000  0.36905000  0.92319000  1.0
  C  C157  1  0.10476000  0.43036000  0.87873000  1.0
  C  C158  1  0.99441000  0.37714000  0.88611000  1.0
  C  C159  1  0.06885000  0.40710000  0.86452000  1.0
  C  C160  1  0.06923000  0.42332667  0.91525333  1.0
  C  C161  1  0.00041000  0.39172000  0.93765000  1.0
  C  C162  1  0.23506000  0.30539667  0.12021333  1.0
  C  C163  1  0.32092000  0.30825000  0.05354000  1.0
  C  C164  1  0.23221000  0.33993667  0.08593333  1.0
  C  C165  1  0.28078000  0.34143333  0.05292667  1.0
  C  C166  1  0.31549000  0.27309000  0.08729000  1.0
  C  C167  1  0.27817000  0.27235333  0.12106000  1.0
  C  C168  1  0.16090000  0.55644000  0.32076000  1.0
  C  C169  1  0.14866000  0.47730667  0.35447667  1.0
  C  C170  1  0.19762000  0.53849333  0.29973333  1.0
  C  C171  1  0.18694000  0.49881333  0.31667667  1.0
  C  C172  1  0.11793000  0.49522667  0.37573000  1.0
  C  C173  1  0.11876000  0.53501333  0.35804000  1.0
  C  C174  1  0.21207000  0.11960000  0.55090000  1.0
  C  C175  1  0.20429000  0.04161000  0.57492000  1.0
  C  C176  1  0.27110000  0.09402000  0.58230000  1.0
  C  C177  1  0.26523000  0.05488000  0.59466000  1.0
  C  C178  1  0.14653000  0.06727000  0.54290000  1.0
  C  C179  1  0.14954000  0.10637000  0.53156000  1.0
  C  C180  1  0.67862000  0.99333000  0.21130000  1.0
  C  C181  1  0.45826000  0.00465000  0.18940000  1.0
  C  C182  1  0.62490000  0.96535000  0.20716000  1.0
  C  C183  1  0.51570000  0.97169000  0.19486000  1.0
  C  C184  1  0.50990000  0.03104000  0.19669000  1.0
  C  C185  1  0.62152000  0.02571000  0.20633000  1.0
  C  C186  1  0.67031000  0.74537000  0.99296000  1.0
  C  C187  1  0.47084000  0.75823000  0.02311000  1.0
  C  C188  1  0.61901000  0.78107667  0.97396000  1.0
  C  C189  1  0.52069000  0.78778333  0.98981000  1.0
  C  C190  1  0.51865000  0.72166333  0.04053000  1.0
  C  C191  1  0.62028000  0.71596000  0.02551000  1.0
  C  C192  1  0.51725000  0.22457000  0.78806000  1.0
  C  C193  1  0.49394000  0.15320000  0.79339000  1.0
  C  C194  1  0.58078000  0.19388000  0.81360000  1.0
  C  C195  1  0.56497000  0.15780333  0.81728000  1.0
  C  C196  1  0.43597000  0.18458000  0.76594000  1.0
  C  C197  1  0.44533000  0.21996000  0.76470000  1.0
  C  C198  1  0.57730000  0.97508000  0.80972000  1.0
  C  C199  1  0.37626000  0.97259000  0.78010000  1.0
  C  C200  1  0.54252000  0.94044000  0.81264000  1.0
  C  C201  1  0.43938000  0.93963000  0.79875000  1.0
  C  C202  1  0.41461000  0.00776000  0.77440000  1.0
  C  C203  1  0.51456000  0.00854000  0.79024000  1.0
  C  C204  1  0.49972000  0.16794000  0.99297000  1.0
  C  C205  1  0.72688000  0.18452000  0.98420000  1.0
  C  C206  1  0.56799000  0.14801000  0.02372000  1.0
  C  C207  1  0.68304000  0.15461000  0.01819000  1.0
  C  C208  1  0.65571000  0.20734000  0.95536000  1.0
  C  C209  1  0.54323000  0.19770000  0.95913000  1.0
  C  C210  1  0.60167000  0.74130000  0.23344000  1.0
  C  C211  1  0.42053000  0.77353000  0.18779000  1.0
  C  C212  1  0.56377000  0.77745000  0.22638000  1.0
  C  C213  1  0.47227000  0.79329000  0.20341000  1.0
  C  C214  1  0.45895000  0.73745333  0.19497667  1.0
  C  C215  1  0.54960000  0.72160000  0.21815000  1.0
  Cd  Cd216  1  0.17377000  0.45557667  0.47639667  1.0
  Cd  Cd217  1  0.95249000  0.51831667  0.52880667  1.0
  Cd  Cd218  1  0.02357000  0.46882667  0.49593333  1.0
  Cd  Cd219  1  0.93557000  0.97311000  0.51080000  1.0
  Cd  Cd220  1  0.09229000  0.07735000  0.44308000  1.0
  Cd  Cd221  1  0.09408000  0.00402000  0.48024000  1.0
  Cd  Cd222  1  0.21130000  0.47275000  0.01994000  1.0
  Cd  Cd223  1  0.01771000  0.52217333  0.91576000  1.0
  Cd  Cd224  1  0.06797000  0.47664000  0.98958000  1.0
  Cd  Cd225  1  0.26946000  0.18203000  0.08542000  1.0
  Cd  Cd226  1  0.45123000  0.11982000  0.22412000  1.0
  Cd  Cd227  1  0.33362000  0.14353000  0.14407000  1.0
  Cd  Cd228  1  0.22616000  0.66092000  0.20029000  1.0
  Cd  Cd229  1  0.49103000  0.60774000  0.13376000  1.0
  Cd  Cd230  1  0.32715000  0.66131000  0.15268000  1.0
  Cd  Cd231  1  0.21987000  0.09035000  0.69586000  1.0
  Cd  Cd232  1  0.42410000  0.21872000  0.65260000  1.0
  Cd  Cd233  1  0.31604000  0.13094000  0.69712000  1.0
  Cd  Cd234  1  0.67824000  0.78015000  0.86369000  1.0
  Cd  Cd235  1  0.90651000  0.90580000  0.80645000  1.0
  Cd  Cd236  1  0.78087000  0.82736333  0.82250667  1.0
  Cd  Cd237  1  0.87135000  0.27621667  0.79567333  1.0
  Cd  Cd238  1  0.65965000  0.32680000  0.87885000  1.0
  Cd  Cd239  1  0.82876000  0.28521000  0.84397333  1.0
  Cd  Cd240  1  0.68840000  0.86934000  0.32345000  1.0
  Cd  Cd241  1  0.89926000  0.78415000  0.26997000  1.0
  Cd  Cd242  1  0.77050000  0.81862000  0.31800000  1.0
  H  H243  1  0.66010000  0.44636000  0.51268000  1.0
  H  H244  1  0.59687000  0.54252000  0.47307000  1.0
  H  H245  1  0.33018000  0.44807667  0.56695667  1.0
  H  H246  1  0.52763000  0.43502333  0.57317000  1.0
  H  H247  1  0.39879000  0.55526000  0.46601000  1.0
  H  H248  1  0.81359000  0.08581000  0.45033000  1.0
  H  H249  1  0.66761000  0.00500000  0.45832000  1.0
  H  H250  1  0.42285000  0.10762000  0.45332000  1.0
  H  H251  1  0.62133000  0.11040000  0.46057000  1.0
  H  H252  1  0.46898000  0.00100000  0.45313000  1.0
  H  H253  1  0.73329000  0.42866333  0.98648000  1.0
  H  H254  1  0.57452000  0.42447667  0.94848000  1.0
  H  H255  1  0.48792000  0.54994333  0.93769667  1.0
  H  H256  1  0.67870000  0.53003333  0.94019333  1.0
  H  H257  1  0.38176000  0.44489000  0.94587000  1.0
  H  H258  1  0.56759000  0.18216000  0.11325000  1.0
  H  H259  1  0.78985000  0.16592000  0.18309000  1.0
  H  H260  1  0.90782000  0.16231000  0.06583000  1.0
  H  H261  1  0.71078000  0.16840000  0.07940000  1.0
  H  H262  1  0.98645000  0.15950000  0.16960000  1.0
  H  H263  1  0.56863000  0.66503000  0.18848000  1.0
  H  H264  1  0.80424000  0.60793000  0.17476000  1.0
  H  H265  1  0.89912000  0.73409000  0.15758000  1.0
  H  H266  1  0.70372000  0.71552000  0.16647000  1.0
  H  H267  1  0.99238000  0.62920000  0.15993000  1.0
  H  H268  1  0.56070000  0.11133000  0.69659000  1.0
  H  H269  1  0.77145000  0.19229000  0.66559000  1.0
  H  H270  1  0.89072000  0.06025000  0.75182000  1.0
  H  H271  1  0.69687000  0.07243000  0.73681000  1.0
  H  H272  1  0.96384000  0.17954000  0.68152000  1.0
  H  H273  1  0.47683000  0.84948000  0.74899000  1.0
  H  H274  1  0.40946000  0.84466000  0.83654000  1.0
  H  H275  1  0.09153000  0.81198000  0.78568000  1.0
  H  H276  1  0.27822000  0.81247000  0.75925000  1.0
  H  H277  1  0.22345000  0.84547000  0.86224000  1.0
  H  H278  1  0.55053000  0.32225000  0.76356000  1.0
  H  H279  1  0.36462000  0.33095000  0.73976000  1.0
  H  H280  1  0.22189000  0.26831000  0.87385000  1.0
  H  H281  1  0.41229000  0.29186000  0.85835000  1.0
  H  H282  1  0.17679000  0.30564000  0.75574000  1.0
  H  H283  1  0.44133000  0.76375000  0.37751000  1.0
  H  H284  1  0.33039000  0.75772000  0.33280000  1.0
  H  H285  1  0.13516000  0.87600000  0.31126000  1.0
  H  H286  1  0.31123000  0.85831000  0.34468000  1.0
  H  H287  1  0.16006000  0.77579000  0.29866000  1.0
  H  H288  1  0.04496000  0.20554000  0.61564000  1.0
  H  H289  1  0.12365000  0.27391000  0.63706667  1.0
  H  H290  1  0.04956000  0.33435667  0.50018667  1.0
  H  H291  1  0.05954000  0.26429000  0.53843000  1.0
  H  H292  1  0.11152000  0.34358333  0.59922667  1.0
  H  H293  1  0.04242000  0.10643000  0.22707000  1.0
  H  H294  1  0.16868000  0.04467000  0.30455000  1.0
  H  H295  1  0.94798000  0.13510000  0.33110000  1.0
  H  H296  1  0.98697000  0.14955000  0.26538000  1.0
  H  H297  1  0.12864000  0.02922000  0.37053000  1.0
  H  H298  1  0.93158000  0.54837667  0.04418333  1.0
  H  H299  1  0.98896000  0.60789000  0.04694000  1.0
  H  H300  1  0.26937000  0.52650667  0.13712333  1.0
  H  H301  1  0.16702000  0.50185667  0.10409333  1.0
  H  H302  1  0.09180000  0.63307000  0.08094000  1.0
  H  H303  1  0.10838000  0.59877333  0.95040667  1.0
  H  H304  1  0.14016000  0.67504333  0.89495667  1.0
  H  H305  1  0.73877000  0.66118000  0.88402000  1.0
  H  H306  1  0.85686000  0.60499000  0.91083333  1.0
  H  H307  1  0.02120000  0.73213667  0.86706000  1.0
  H  H308  1  0.90540000  0.39573000  0.74180333  1.0
  H  H309  1  0.81701000  0.37005000  0.67345667  1.0
  H  H310  1  0.14532000  0.45440333  0.63539000  1.0
  H  H311  1  0.08986000  0.41618667  0.70258333  1.0
  H  H312  1  0.87320000  0.40806667  0.60614000  1.0
  H  H313  1  0.92068000  0.82341000  0.41149000  1.0
  H  H314  1  0.91025000  0.82904000  0.47005000  1.0
  H  H315  1  0.99176000  0.96648000  0.38791000  1.0
  H  H316  1  0.93845000  0.92800000  0.35897000  1.0
  H  H317  1  0.96116000  0.86725000  0.49875000  1.0
  H  H318  1  0.87665000  0.70437667  0.41054667  1.0
  H  H319  1  0.09816000  0.68251333  0.41590667  1.0
  H  H320  1  0.90837000  0.58603333  0.39682667  1.0
  H  H321  1  0.84019000  0.65188333  0.36650000  1.0
  H  H322  1  0.16936000  0.61756667  0.44505333  1.0
  H  H323  1  0.16697000  0.90984000  0.59719000  1.0
  H  H324  1  0.04228000  0.85164000  0.65751000  1.0
  H  H325  1  0.93509000  0.95835000  0.68070000  1.0
  H  H326  1  0.01916000  0.97179000  0.61914000  1.0
  H  H327  1  0.95549000  0.83774000  0.71928000  1.0
  H  H328  1  0.00765000  0.34513000  0.85647000  1.0
  H  H329  1  0.09547000  0.41342333  0.83609000  1.0
  H  H330  1  0.97069000  0.38549000  0.96578000  1.0
  H  H331  1  0.90827000  0.34542000  0.94083000  1.0
  H  H332  1  0.15765000  0.45446333  0.86072000  1.0
  H  H333  1  0.07774000  0.36188000  0.09412000  1.0
  H  H334  1  0.27734000  0.36736000  0.02590000  1.0
  H  H335  1  0.27103000  0.24558000  0.14735000  1.0
  H  H336  1  0.19657000  0.30344000  0.14583000  1.0
  H  H337  1  0.34779000  0.30955000  0.02700000  1.0
  H  H338  1  0.31765000  0.54381667  0.25651333  1.0
  H  H339  1  0.21535000  0.48426667  0.30136333  1.0
  H  H340  1  0.09985000  0.54932000  0.37438000  1.0
  H  H341  1  0.17299000  0.58649333  0.31015000  1.0
  H  H342  1  0.15136000  0.44653000  0.36798333  1.0
  H  H343  1  0.41159000  0.11949667  0.59186333  1.0
  H  H344  1  0.30933000  0.03476000  0.61923000  1.0
  H  H345  1  0.10757000  0.12704000  0.50670000  1.0
  H  H346  1  0.21482000  0.14981000  0.54134000  1.0
  H  H347  1  0.20426000  0.01143000  0.58422000  1.0
  H  H348  1  0.68100000  0.91610667  0.20356333  1.0
  H  H349  1  0.47309000  0.95009000  0.19183000  1.0
  H  H350  1  0.66403000  0.04624000  0.21108000  1.0
  H  H351  1  0.76298000  0.98898000  0.22049000  1.0
  H  H352  1  0.37256000  0.00841000  0.18160000  1.0
  H  H353  1  0.67562000  0.83653000  0.93025000  1.0
  H  H354  1  0.48026000  0.81524000  0.97554000  1.0
  H  H355  1  0.66152000  0.68857000  0.03878000  1.0
  H  H356  1  0.74724000  0.73986667  0.98153000  1.0
  H  H357  1  0.39366000  0.76361000  0.03448000  1.0
  H  H358  1  0.65881000  0.17968000  0.86534000  1.0
  H  H359  1  0.61193000  0.13364000  0.83733000  1.0
  H  H360  1  0.40155000  0.24478000  0.74417000  1.0
  H  H361  1  0.52513000  0.25236000  0.78562000  1.0
  H  H362  1  0.48987000  0.12570000  0.79488000  1.0
  H  H363  1  0.57026000  0.88081000  0.83436000  1.0
  H  H364  1  0.40955000  0.91363000  0.80076000  1.0
  H  H365  1  0.54528000  0.03504000  0.78696000  1.0
  H  H366  1  0.65252000  0.97689667  0.82202000  1.0
  H  H367  1  0.29909000  0.97057000  0.76870000  1.0
  H  H368  1  0.57133000  0.10260333  0.08060000  1.0
  H  H369  1  0.73762000  0.13864000  0.04123000  1.0
  H  H370  1  0.48780000  0.21454667  0.93656667  1.0
  H  H371  1  0.41189000  0.16197000  0.99574000  1.0
  H  H372  1  0.81405000  0.19151000  0.98164000  1.0
  H  H373  1  0.55674000  0.80946000  0.25625000  1.0
  H  H374  1  0.43908000  0.82048000  0.19843000  1.0
  H  H375  1  0.57638000  0.69285000  0.22649000  1.0
  H  H376  1  0.66765000  0.72710000  0.25264000  1.0
  H  H377  1  0.34702000  0.78555000  0.17174000  1.0
  N  N378  1  0.67157000  0.47095333  0.51468667  1.0
  N  N379  1  0.77408000  0.05942000  0.46606000  1.0
  N  N380  1  0.74011000  0.45668333  0.96416000  1.0
  N  N381  1  0.61396000  0.17276000  0.13738000  1.0
  N  N382  1  0.62050000  0.64882000  0.18060000  1.0
  N  N383  1  0.60503000  0.13667000  0.68647000  1.0
  N  N384  1  0.46568000  0.83190000  0.77830000  1.0
  N  N385  1  0.51868000  0.32410333  0.78712667  1.0
  N  N386  1  0.43214000  0.79339000  0.36267000  1.0
  N  N387  1  0.11081000  0.22357333  0.61184000  1.0
  N  N388  1  0.10765000  0.10793000  0.24228000  1.0
  N  N389  1  0.01341000  0.53932000  0.05065000  1.0
  N  N390  1  0.07253000  0.60196000  0.92604000  1.0
  N  N391  1  0.90167000  0.37757333  0.73028000  1.0
  N  N392  1  0.89049000  0.85131000  0.39708000  1.0
  N  N393  1  0.90073000  0.70386333  0.38562000  1.0
  N  N394  1  0.08817000  0.92082000  0.59803000  1.0
  N  N395  1  0.95219000  0.35472333  0.87063000  1.0
  N  N396  1  0.15895000  0.36991000  0.08316000  1.0
  N  N397  1  0.25827000  0.55885000  0.26365000  1.0
  N  N398  1  0.33324000  0.10760000  0.60263000  1.0
  N  N399  1  0.67516000  0.92851000  0.22099000  1.0
  N  N400  1  0.66047000  0.80854000  0.93664000  1.0
  N  N401  1  0.65936000  0.19910000  0.83629000  1.0
  N  N402  1  0.61011000  0.90632000  0.82731000  1.0
  N  N403  1  0.52171000  0.12473000  0.06152000  1.0
  N  N404  1  0.61055000  0.79615000  0.24529000  1.0
  O  O405  1  0.05460000  0.55537000  0.48927000  1.0
  O  O406  1  0.01148000  0.52769333  0.45440000  1.0
  O  O407  1  0.04996000  0.47753667  0.44040667  1.0
  O  O408  1  0.22363000  0.45862667  0.42972000  1.0
  O  O409  1  0.17454000  0.47443000  0.51437000  1.0
  O  O410  1  0.29691000  0.49101000  0.46558667  1.0
  O  O411  1  0.85532000  0.46513667  0.50368333  1.0
  O  O412  1  0.79660000  0.51206333  0.51725667  1.0
  O  O413  1  0.97913000  0.50072000  0.58094333  1.0
  O  O414  1  0.01344000  0.46936000  0.54653333  1.0
  O  O415  1  0.00924000  0.40901333  0.51894667  1.0
  O  O416  1  0.18887000  0.39958667  0.50883000  1.0
  O  O417  1  0.03759000  0.07851000  0.49016000  1.0
  O  O418  1  0.13796000  0.02432000  0.51707000  1.0
  O  O419  1  0.08702000  0.95315000  0.53168000  1.0
  O  O420  1  0.93063000  0.95140000  0.56602000  1.0
  O  O421  1  0.94443000  0.02961000  0.47674000  1.0
  O  O422  1  0.79090000  0.99503000  0.51002000  1.0
  O  O423  1  0.26252000  0.01751000  0.46620000  1.0
  O  O424  1  0.25321000  0.08251000  0.43934000  1.0
  O  O425  1  0.02243000  0.10787000  0.39769000  1.0
  O  O426  1  0.06287000  0.04242000  0.42386000  1.0
  O  O427  1  0.08106000  0.96388000  0.45988000  1.0
  O  O428  1  0.90934000  0.94228000  0.48639000  1.0
  O  O429  1  0.10749000  0.48712000  0.90260000  1.0
  O  O430  1  0.06055000  0.44288000  0.96330000  1.0
  O  O431  1  0.09633000  0.43176000  0.04424000  1.0
  O  O432  1  0.28002000  0.42161000  0.05237000  1.0
  O  O433  1  0.22714000  0.48654000  0.96467000  1.0
  O  O434  1  0.35476000  0.49382000  0.00070000  1.0
  O  O435  1  0.91155000  0.45966000  0.98463000  1.0
  O  O436  1  0.85982000  0.50595333  0.92646000  1.0
  O  O437  1  0.03582000  0.57557000  0.88792000  1.0
  O  O438  1  0.06949000  0.53558000  0.95222000  1.0
  O  O439  1  0.99848000  0.50452000  0.01875000  1.0
  O  O440  1  0.16394000  0.50828000  0.03978000  1.0
  O  O441  1  0.29334000  0.12176000  0.24279000  1.0
  O  O442  1  0.22274000  0.12224000  0.19054000  1.0
  O  O443  1  0.16441000  0.14599333  0.13001000  1.0
  O  O444  1  0.11514000  0.18639000  0.06993000  1.0
  O  O445  1  0.34569000  0.20392000  0.11484000  1.0
  O  O446  1  0.27051000  0.23719000  0.05699000  1.0
  O  O447  1  0.39705000  0.08782000  0.16562000  1.0
  O  O448  1  0.47313000  0.07105000  0.22335000  1.0
  O  O449  1  0.59796000  0.14816000  0.20395000  1.0
  O  O450  1  0.44289000  0.15604000  0.17241000  1.0
  O  O451  1  0.43294000  0.12484333  0.11312000  1.0
  O  O452  1  0.37112000  0.16425333  0.05590667  1.0
  O  O453  1  0.35526000  0.57788667  0.14325000  1.0
  O  O454  1  0.25101000  0.63246000  0.12560000  1.0
  O  O455  1  0.15997000  0.67859000  0.14923000  1.0
  O  O456  1  0.08342000  0.68298000  0.19974000  1.0
  O  O457  1  0.31435000  0.61418667  0.20829333  1.0
  O  O458  1  0.16426000  0.61607000  0.24364000  1.0
  O  O459  1  0.40295000  0.69577333  0.09870667  1.0
  O  O460  1  0.50179000  0.65489333  0.08309000  1.0
  O  O461  1  0.62591000  0.60172000  0.16218000  1.0
  O  O462  1  0.46152000  0.62764000  0.16565000  1.0
  O  O463  1  0.40114000  0.70637000  0.15889000  1.0
  O  O464  1  0.31459000  0.69193000  0.21456000  1.0
  O  O465  1  0.29325000  0.23109000  0.62067000  1.0
  O  O466  1  0.20637000  0.17256000  0.65807000  1.0
  O  O467  1  0.14712000  0.12463000  0.71538000  1.0
  O  O468  1  0.06475000  0.08463333  0.69865667  1.0
  O  O469  1  0.35141000  0.11378000  0.65685000  1.0
  O  O470  1  0.19154000  0.09125000  0.64843000  1.0
  O  O471  1  0.36987000  0.15002000  0.73491000  1.0
  O  O472  1  0.38372000  0.21583000  0.70196000  1.0
  O  O473  1  0.58672000  0.20387000  0.65034000  1.0
  O  O474  1  0.43586000  0.16743000  0.66717000  1.0
  O  O475  1  0.38884000  0.07763333  0.73824667  1.0
  O  O476  1  0.26411000  0.03975000  0.73453000  1.0
  O  O477  1  0.01662000  0.86710000  0.83984000  1.0
  O  O478  1  0.94927000  0.82248667  0.82600333  1.0
  O  O479  1  0.82461000  0.76945000  0.84368000  1.0
  O  O480  1  0.69690000  0.72581000  0.88345000  1.0
  O  O481  1  0.71885000  0.82230000  0.87493000  1.0
  O  O482  1  0.63966000  0.76507000  0.91573000  1.0
  O  O483  1  0.84759000  0.85651000  0.76622000  1.0
  O  O484  1  0.92561000  0.91388000  0.75367000  1.0
  O  O485  1  0.78504000  0.93578000  0.81614000  1.0
  O  O486  1  0.77737000  0.87706000  0.82333000  1.0
  O  O487  1  0.65165000  0.83453000  0.78749000  1.0
  O  O488  1  0.54200000  0.79277000  0.83539000  1.0
  O  O489  1  0.57100000  0.33728000  0.83364000  1.0
  O  O490  1  0.68544000  0.30267333  0.81401667  1.0
  O  O491  1  0.79430000  0.23522333  0.84405667  1.0
  O  O492  1  0.75097000  0.25018333  0.78479667  1.0
  O  O493  1  0.86038000  0.32912333  0.79115333  1.0
  O  O494  1  0.87692000  0.31536000  0.74248333  1.0
  O  O495  1  0.77291000  0.24583667  0.89978667  1.0
  O  O496  1  0.63321000  0.27393000  0.91968000  1.0
  O  O497  1  0.76474000  0.36160333  0.88593000  1.0
  O  O498  1  0.80557000  0.32081667  0.86460333  1.0
  O  O499  1  0.00370000  0.28228000  0.84407000  1.0
  O  O500  1  0.02699000  0.25994000  0.80251000  1.0
  O  O501  1  0.00883000  0.82494000  0.26003000  1.0
  O  O502  1  0.94123000  0.82940000  0.31185000  1.0
  O  O503  1  0.80023000  0.83222000  0.35980000  1.0
  O  O504  1  0.76826000  0.89172000  0.35046000  1.0
  O  O505  1  0.72668000  0.87069000  0.27273000  1.0
  O  O506  1  0.67325000  0.92044667  0.28189000  1.0
  O  O507  1  0.82279000  0.76300000  0.35301000  1.0
  O  O508  1  0.91880000  0.73708000  0.32019000  1.0
  O  O509  1  0.79475000  0.78258000  0.23432000  1.0
  O  O510  1  0.76098000  0.80299000  0.27704000  1.0
  O  O511  1  0.61649000  0.79619000  0.34418000  1.0
  O  O512  1  0.53448000  0.84852333  0.34178000  1.0
