# generated using pymatgen
data_In3C12S3N6O13
_symmetry_space_group_name_H-M   'P 1'
_cell_length_a   13.36635000
_cell_length_b   16.90665000
_cell_length_c   20.96215000
_cell_angle_alpha   107.06800000
_cell_angle_beta   90.00000000
_cell_angle_gamma   90.00000000
_symmetry_Int_Tables_number   1
_chemical_formula_structural   In3C12S3N6O13
_chemical_formula_sum   'In12 C48 S12 N24 O52'
_cell_volume   4528.39824506
_cell_formula_units_Z   4
loop_
 _symmetry_equiv_pos_site_id
 _symmetry_equiv_pos_as_xyz
  1  'x, y, z'
loop_
 _atom_site_type_symbol
 _atom_site_label
 _atom_site_symmetry_multiplicity
 _atom_site_fract_x
 _atom_site_fract_y
 _atom_site_fract_z
 _atom_site_occupancy
  C  C0  1  0.42892000  0.89522000  0.78940000  1.0
  C  C1  1  0.09650000  0.85278000  0.71674000  1.0
  C  C2  1  0.07472000  0.03040000  0.89364000  1.0
  C  C3  1  0.13812000  0.19058000  0.83044000  1.0
  C  C4  1  0.15906000  0.98734000  0.59878000  1.0
  C  C5  1  0.42446000  0.11288000  0.76330000  1.0
  C  C6  1  0.44922000  0.51158000  0.34138000  1.0
  C  C7  1  0.18114000  0.43902000  0.29554000  1.0
  C  C8  1  0.11578000  0.62398000  0.45520000  1.0
  C  C9  1  0.10852000  0.76918000  0.35368000  1.0
  C  C10  1  0.14552000  0.54258000  0.15370000  1.0
  C  C11  1  0.45096000  0.72300000  0.31758000  1.0
  C  C12  1  0.65118000  0.23350000  0.33360000  1.0
  C  C13  1  0.89528000  0.09722000  0.12622000  1.0
  C  C14  1  0.01106000  0.24774000  0.38170000  1.0
  C  C15  1  0.00126000  0.05474000  0.39244000  1.0
  C  C16  1  0.92410000  0.94326000  0.22120000  1.0
  C  C17  1  0.65748000  0.99500000  0.32228000  1.0
  C  C18  1  0.64000000  0.62696000  0.78708000  1.0
  C  C19  1  0.94558000  0.56200000  0.65976000  1.0
  C  C20  1  0.91790000  0.69086000  0.86342000  1.0
  C  C21  1  0.95236000  0.50386000  0.92932000  1.0
  C  C22  1  0.96956000  0.36840000  0.71892000  1.0
  C  C23  1  0.63902000  0.38946000  0.77182000  1.0
  C  C24  1  0.06216000  0.02374000  0.43782000  1.0
  C  C25  1  0.13362000  0.99306000  0.53254000  1.0
  C  C26  1  0.07132000  0.62194000  0.51756000  1.0
  C  C27  1  0.99352000  0.59422000  0.61076000  1.0
  C  C28  1  0.01070000  0.49452000  0.98530000  1.0
  C  C29  1  0.10378000  0.51882000  0.08672000  1.0
  C  C30  1  0.00744000  0.04150000  0.95046000  1.0
  C  C31  1  0.92384000  0.08158000  0.05636000  1.0
  C  C32  1  0.57732000  0.31222000  0.76098000  1.0
  C  C33  1  0.48650000  0.18288000  0.75480000  1.0
  C  C34  1  0.58868000  0.30998000  0.34762000  1.0
  C  C35  1  0.50546000  0.44136000  0.35382000  1.0
  C  C36  1  0.60896000  0.91976000  0.33028000  1.0
  C  C37  1  0.52780000  0.78704000  0.32022000  1.0
  C  C38  1  0.50850000  0.83726000  0.79598000  1.0
  C  C39  1  0.59340000  0.70538000  0.78446000  1.0
  C  C40  1  0.00482000  0.31904000  0.76068000  1.0
  C  C41  1  0.10474000  0.27428000  0.84138000  1.0
  C  C42  1  0.07454000  0.31872000  0.40934000  1.0
  C  C43  1  0.15956000  0.39418000  0.34368000  1.0
  C  C44  1  0.07676000  0.83416000  0.32584000  1.0
  C  C45  1  0.98292000  0.88580000  0.24678000  1.0
  C  C46  1  0.94388000  0.75234000  0.82896000  1.0
  C  C47  1  0.03628000  0.79960000  0.74616000  1.0
  In  In48  1  0.28262000  0.05018000  0.84294000  1.0
  In  In49  1  0.09988000  0.02384000  0.74592000  1.0
  In  In50  1  0.29676000  0.94510000  0.69630000  1.0
  In  In51  1  0.29282000  0.66598000  0.38648000  1.0
  In  In52  1  0.10846000  0.59442000  0.30324000  1.0
  In  In53  1  0.32488000  0.55822000  0.24674000  1.0
  In  In54  1  0.81450000  0.14312000  0.37488000  1.0
  In  In55  1  0.97246000  0.10906000  0.26434000  1.0
  In  In56  1  0.75216000  0.07262000  0.23172000  1.0
  In  In57  1  0.76398000  0.54730000  0.86376000  1.0
  In  In58  1  0.97136000  0.53118000  0.79416000  1.0
  In  In59  1  0.78282000  0.47566000  0.71018000  1.0
  N  N60  1  0.19726000  0.97886000  0.48012000  1.0
  N  N61  1  0.15756000  0.99640000  0.42736000  1.0
  N  N62  1  0.07132000  0.64678000  0.62784000  1.0
  N  N63  1  0.11436000  0.66242000  0.57614000  1.0
  N  N64  1  0.15554000  0.47526000  0.03270000  1.0
  N  N65  1  0.10414000  0.46248000  0.97642000  1.0
  N  N66  1  0.86074000  0.05290000  0.00426000  1.0
  N  N67  1  0.90702000  0.03210000  0.94534000  1.0
  N  N68  1  0.50450000  0.19480000  0.69492000  1.0
  N  N69  1  0.55424000  0.26450000  0.69836000  1.0
  N  N70  1  0.51686000  0.42754000  0.41374000  1.0
  N  N71  1  0.56378000  0.35638000  0.41036000  1.0
  N  N72  1  0.58490000  0.81648000  0.37568000  1.0
  N  N73  1  0.63086000  0.88800000  0.38058000  1.0
  N  N74  1  0.63008000  0.74800000  0.74446000  1.0
  N  N75  1  0.58288000  0.81900000  0.75006000  1.0
  N  N76  1  0.00594000  0.28568000  0.85654000  1.0
  N  N77  1  0.95136000  0.31064000  0.81284000  1.0
  N  N78  1  0.22230000  0.34592000  0.36576000  1.0
  N  N79  1  0.17504000  0.30476000  0.40230000  1.0
  N  N80  1  0.08326000  0.88162000  0.23690000  1.0
  N  N81  1  0.13422000  0.85164000  0.27900000  1.0
  N  N82  1  0.93608000  0.79188000  0.73564000  1.0
  N  N83  1  0.88616000  0.76336000  0.77940000  1.0
  O  O84  1  0.38414000  0.95028000  0.84188000  1.0
  O  O85  1  0.19738000  0.85414000  0.71698000  1.0
  O  O86  1  0.03358000  0.02276000  0.83416000  1.0
  O  O87  1  0.21802000  0.16876000  0.86026000  1.0
  O  O88  1  0.09864000  0.02620000  0.64884000  1.0
  O  O89  1  0.39042000  0.05328000  0.70942000  1.0
  O  O90  1  0.39810000  0.11646000  0.82492000  1.0
  O  O91  1  0.24020000  0.94540000  0.60622000  1.0
  O  O92  1  0.08412000  0.14040000  0.78312000  1.0
  O  O93  1  0.17270000  0.03724000  0.90618000  1.0
  O  O94  1  0.04370000  0.91402000  0.70872000  1.0
  O  O95  1  0.40894000  0.88944000  0.72636000  1.0
  O  O96  1  0.22802000  0.00996000  0.76202000  1.0
  O  O97  1  0.39164000  0.56350000  0.38882000  1.0
  O  O98  1  0.27362000  0.46170000  0.28532000  1.0
  O  O99  1  0.06778000  0.59170000  0.39774000  1.0
  O  O100  1  0.20426000  0.76598000  0.37366000  1.0
  O  O101  1  0.08204000  0.57264000  0.20412000  1.0
  O  O102  1  0.42160000  0.66566000  0.26064000  1.0
  O  O103  1  0.41278000  0.72794000  0.37668000  1.0
  O  O104  1  0.24364000  0.53064000  0.16018000  1.0
  O  O105  1  0.05030000  0.70410000  0.33298000  1.0
  O  O106  1  0.20530000  0.65852000  0.46068000  1.0
  O  O107  1  0.10258000  0.47490000  0.27984000  1.0
  O  O108  1  0.44264000  0.50854000  0.27778000  1.0
  O  O109  1  0.24046000  0.62034000  0.30606000  1.0
  O  O110  1  0.69946000  0.22230000  0.38568000  1.0
  O  O111  1  0.80506000  0.07160000  0.13956000  1.0
  O  O112  1  0.03826000  0.20698000  0.32006000  1.0
  O  O113  1  0.91278000  0.08414000  0.41596000  1.0
  O  O114  1  0.98210000  0.99562000  0.20456000  1.0
  O  O115  1  0.64802000  0.00814000  0.26340000  1.0
  O  O116  1  0.72032000  0.03912000  0.36974000  1.0
  O  O117  1  0.82980000  0.96416000  0.23970000  1.0
  O  O118  1  0.03696000  0.05696000  0.33356000  1.0
  O  O119  1  0.92528000  0.23516000  0.41108000  1.0
  O  O120  1  0.96724000  0.12496000  0.17170000  1.0
  O  O121  1  0.66326000  0.18292000  0.27072000  1.0
  O  O122  1  0.84368000  0.13114000  0.28876000  1.0
  O  O123  1  0.64626000  0.61248000  0.84586000  1.0
  O  O124  1  0.86758000  0.51124000  0.64270000  1.0
  O  O125  1  0.99144000  0.63934000  0.86074000  1.0
  O  O126  1  0.85760000  0.53130000  0.93792000  1.0
  O  O127  1  0.02584000  0.43378000  0.72694000  1.0
  O  O128  1  0.66568000  0.40498000  0.71566000  1.0
  O  O129  1  0.67206000  0.43542000  0.83268000  1.0
  O  O130  1  0.87088000  0.37138000  0.70880000  1.0
  O  O131  1  0.00450000  0.49208000  0.87330000  1.0
  O  O132  1  0.82256000  0.66610000  0.86440000  1.0
  O  O133  1  0.98862000  0.58310000  0.71952000  1.0
  O  O134  1  0.69140000  0.58318000  0.73310000  1.0
  O  O135  1  0.83906000  0.51014000  0.79072000  1.0
  S  S136  1  0.02334000  0.02830000  0.51494000  1.0
  S  S137  1  0.97416000  0.56300000  0.52756000  1.0
  S  S138  1  0.98780000  0.54284000  0.06628000  1.0
  S  S139  1  0.04320000  0.07944000  0.03046000  1.0
  S  S140  1  0.53408000  0.26458000  0.81652000  1.0
  S  S141  1  0.55338000  0.36024000  0.29270000  1.0
  S  S142  1  0.53046000  0.85492000  0.27486000  1.0
  S  S143  1  0.49780000  0.75914000  0.83140000  1.0
  S  S144  1  0.12690000  0.30644000  0.77390000  1.0
  S  S145  1  0.04478000  0.39344000  0.37574000  1.0
  S  S146  1  0.95430000  0.85290000  0.31292000  1.0
  S  S147  1  0.06478000  0.77612000  0.81650000  1.0
