# generated using pymatgen
data_MnH20C31N3O4
_symmetry_space_group_name_H-M   'P 1'
_cell_length_a   20.71430000
_cell_length_b   32.73790000
_cell_length_c   35.18440000
_cell_angle_alpha   90.00000000
_cell_angle_beta   90.00000000
_cell_angle_gamma   105.61700000
_symmetry_Int_Tables_number   1
_chemical_formula_structural   MnH20C31N3O4
_chemical_formula_sum   'Mn8 H160 C248 N24 O32'
_cell_volume   22979.19581812
_cell_formula_units_Z   8
loop_
 _symmetry_equiv_pos_site_id
 _symmetry_equiv_pos_as_xyz
  1  'x, y, z'
loop_
 _atom_site_type_symbol
 _atom_site_label
 _atom_site_symmetry_multiplicity
 _atom_site_fract_x
 _atom_site_fract_y
 _atom_site_fract_z
 _atom_site_occupancy
  C  C0  1  0.40869000  0.15894000  0.79347500  1.0
  C  C1  1  0.25164000  0.11167500  0.74045000  1.0
  C  C2  1  0.17775000  0.05803500  0.82841500  1.0
  C  C3  1  0.17007000  0.22541500  0.84149500  1.0
  C  C4  1  0.25911000  0.21317500  0.86231000  1.0
  C  C5  1  0.32563000  0.10241500  0.88086000  1.0
  C  C6  1  0.33908000  0.96428500  0.76547500  1.0
  C  C7  1  0.39989000  0.01401500  0.79901500  1.0
  C  C8  1  0.33970000  0.67091000  0.26702000  1.0
  C  C9  1  0.26838000  0.57450500  0.21164500  1.0
  C  C10  1  0.25686000  0.51113000  0.30005000  1.0
  C  C11  1  0.04237000  0.59175000  0.28708500  1.0
  C  C12  1  0.11946000  0.60674500  0.32868500  1.0
  C  C13  1  0.32229000  0.60814000  0.35421000  1.0
  C  C14  1  0.54076000  0.58047000  0.24516500  1.0
  C  C15  1  0.46675000  0.54586500  0.28322500  1.0
  C  C16  1  0.83584000  0.03989500  0.28988000  1.0
  C  C17  1  0.99667000  0.07712000  0.23803000  1.0
  C  C18  1  0.07849000  0.12062500  0.32693000  1.0
  C  C19  1  0.04131000  0.94363500  0.32782000  1.0
  C  C20  1  0.96310000  0.96482000  0.35325500  1.0
  C  C21  1  0.92807000  0.08590500  0.37949500  1.0
  C  C22  1  0.94902000  0.23587000  0.27286000  1.0
  C  C23  1  0.87442000  0.18610000  0.29894500  1.0
  C  C24  1  0.94093000  0.53532500  0.78054000  1.0
  C  C25  1  0.05188000  0.61870500  0.72237000  1.0
  C  C26  1  0.07456000  0.69080000  0.80655000  1.0
  C  C27  1  0.24031000  0.58030500  0.82081500  1.0
  C  C28  1  0.15058000  0.57073000  0.85279000  1.0
  C  C29  1  0.97057000  0.60743000  0.86260000  1.0
  C  C30  1  0.79485000  0.65265000  0.73713500  1.0
  C  C31  1  0.86350000  0.68065000  0.78067000  1.0
  C  C32  1  0.99162000  0.10102500  0.49480000  1.0
  C  C33  1  0.99211000  0.13713500  0.47299000  1.0
  C  C34  1  0.96395000  0.13282000  0.43636000  1.0
  C  C35  1  0.93462000  0.09231500  0.42117500  1.0
  C  C36  1  0.92847000  0.05668500  0.44465500  1.0
  C  C37  1  0.95696000  0.06097500  0.48089000  1.0
  C  C38  1  0.03246000  0.10424000  0.52999000  1.0
  C  C39  1  0.07800000  0.07952000  0.53381000  1.0
  C  C40  1  0.11694000  0.08192500  0.56663000  1.0
  C  C41  1  0.11073000  0.10862500  0.59698000  1.0
  C  C42  1  0.06500000  0.13349500  0.59295000  1.0
  C  C43  1  0.02692000  0.13166000  0.55969000  1.0
  C  C44  1  0.15098000  0.11007500  0.63268000  1.0
  C  C45  1  0.17108000  0.14748500  0.65440000  1.0
  C  C46  1  0.20540000  0.14819500  0.68877000  1.0
  C  C47  1  0.22192000  0.11181500  0.70209500  1.0
  C  C48  1  0.20433000  0.07485000  0.67993000  1.0
  C  C49  1  0.16879000  0.07385500  0.64586000  1.0
  C  C50  1  0.28890000  0.62647000  0.47013000  1.0
  C  C51  1  0.30927000  0.59050500  0.45900000  1.0
  C  C52  1  0.32978000  0.58643500  0.42146500  1.0
  C  C53  1  0.33081000  0.61847500  0.39483500  1.0
  C  C54  1  0.31662000  0.65597500  0.40700500  1.0
  C  C55  1  0.29590000  0.65996000  0.44423000  1.0
  C  C56  1  0.25392000  0.62735000  0.50690500  1.0
  C  C57  1  0.19342000  0.63913500  0.50793500  1.0
  C  C58  1  0.15813000  0.63803500  0.54201500  1.0
  C  C59  1  0.18267000  0.62540500  0.57604500  1.0
  C  C60  1  0.24412000  0.61453000  0.57500000  1.0
  C  C61  1  0.27891000  0.61510500  0.54082000  1.0
  C  C62  1  0.14406000  0.62253000  0.61231500  1.0
  C  C63  1  0.14506000  0.59059000  0.63879500  1.0
  C  C64  1  0.11294000  0.58896000  0.67377000  1.0
  C  C65  1  0.07762000  0.61865000  0.68318000  1.0
  C  C66  1  0.07330000  0.64940500  0.65627500  1.0
  C  C67  1  0.10664000  0.65153000  0.62121000  1.0
  C  C68  1  0.01430000  0.59987500  0.97623500  1.0
  C  C69  1  0.02487000  0.64002000  0.95905000  1.0
  C  C70  1  0.99746000  0.64412000  0.92332000  1.0
  C  C71  1  0.96007000  0.60819000  0.90374000  1.0
  C  C72  1  0.94268000  0.56909500  0.92274500  1.0
  C  C73  1  0.96898000  0.56502000  0.95876500  1.0
  C  C74  1  0.05578000  0.59361000  0.00947500  1.0
  C  C75  1  0.07744000  0.55641500  0.01266500  1.0
  C  C76  1  0.11890000  0.55113500  0.04264000  1.0
  C  C77  1  0.14109000  0.58324500  0.06977500  1.0
  C  C78  1  0.12018000  0.62052500  0.06660000  1.0
  C  C79  1  0.07772000  0.62554500  0.03701000  1.0
  C  C80  1  0.18288000  0.57713500  0.10251000  1.0
  C  C81  1  0.24033000  0.60906000  0.11316000  1.0
  C  C82  1  0.27400000  0.60572500  0.14711500  1.0
  C  C83  1  0.25011000  0.57074500  0.17117000  1.0
  C  C84  1  0.19491000  0.53786500  0.15959000  1.0
  C  C85  1  0.16219000  0.54071500  0.12530500  1.0
  C  C86  1  0.26510000  0.08603000  0.99583500  1.0
  C  C87  1  0.30287000  0.12580000  0.98279000  1.0
  C  C88  1  0.33132000  0.13016500  0.94655000  1.0
  C  C89  1  0.32230000  0.09493000  0.92234000  1.0
  C  C90  1  0.29052000  0.05444500  0.93676000  1.0
  C  C91  1  0.26211000  0.05002500  0.97332500  1.0
  C  C92  1  0.22313000  0.08333000  0.03055000  1.0
  C  C93  1  0.22299000  0.05355000  0.05924500  1.0
  C  C94  1  0.18350000  0.05198500  0.09191500  1.0
  C  C95  1  0.14208000  0.07960000  0.09632000  1.0
  C  C96  1  0.14152000  0.10871500  0.06698000  1.0
  C  C97  1  0.18177000  0.11074000  0.03476500  1.0
  C  C98  1  0.10049000  0.07851000  0.13139500  1.0
  C  C99  1  0.08797000  0.11582500  0.14591500  1.0
  C  C100  1  0.05128000  0.11507000  0.17951000  1.0
  C  C101  1  0.02707000  0.07715000  0.19984000  1.0
  C  C102  1  0.03815000  0.03972500  0.18507000  1.0
  C  C103  1  0.07379000  0.04030500  0.15117500  1.0
  C  C104  1  0.80946000  0.40903500  0.77745000  1.0
  C  C105  1  0.78818000  0.44377000  0.76444000  1.0
  C  C106  1  0.83203000  0.48427000  0.76390500  1.0
  C  C107  1  0.89844000  0.49123500  0.77655000  1.0
  C  C108  1  0.92101000  0.45616000  0.78776500  1.0
  C  C109  1  0.87678000  0.41523500  0.78808000  1.0
  C  C110  1  0.75914000  0.36763500  0.78230000  1.0
  C  C111  1  0.76724000  0.33026000  0.76568500  1.0
  C  C112  1  0.71443000  0.29284000  0.76649000  1.0
  C  C113  1  0.65325000  0.29256000  0.78395000  1.0
  C  C114  1  0.64738000  0.32929000  0.80263500  1.0
  C  C115  1  0.69953000  0.36632500  0.80173500  1.0
  C  C116  1  0.59326000  0.25578500  0.78091500  1.0
  C  C117  1  0.53175000  0.26313000  0.77100500  1.0
  C  C118  1  0.47266000  0.23073500  0.77316000  1.0
  C  C119  1  0.47334000  0.18994000  0.78503000  1.0
  C  C120  1  0.53521000  0.18145500  0.79229500  1.0
  C  C121  1  0.59501000  0.21431000  0.79027000  1.0
  C  C122  1  0.77207000  0.31782000  0.29156000  1.0
  C  C123  1  0.74011000  0.27433500  0.28626000  1.0
  C  C124  1  0.77714000  0.24408000  0.28679500  1.0
  C  C125  1  0.84685000  0.25676000  0.29226500  1.0
  C  C126  1  0.87815000  0.29981500  0.29904500  1.0
  C  C127  1  0.84134000  0.32981000  0.29896500  1.0
  C  C128  1  0.73463000  0.35094500  0.28814500  1.0
  C  C129  1  0.76554000  0.39059000  0.27165500  1.0
  C  C130  1  0.73171000  0.42210500  0.26874500  1.0
  C  C131  1  0.66549000  0.41498500  0.28186500  1.0
  C  C132  1  0.63419000  0.37524500  0.29811500  1.0
  C  C133  1  0.66827000  0.34366500  0.30121000  1.0
  C  C134  1  0.62958000  0.44888500  0.27844000  1.0
  C  C135  1  0.58556000  0.45492500  0.30704000  1.0
  C  C136  1  0.55234000  0.48684500  0.30376500  1.0
  C  C137  1  0.56235000  0.51375000  0.27187000  1.0
  C  C138  1  0.60660000  0.50788000  0.24337500  1.0
  C  C139  1  0.63952000  0.47586500  0.24654500  1.0
  C  C140  1  0.64201000  0.95845500  0.26303000  1.0
  C  C141  1  0.70065000  0.95060500  0.24851500  1.0
  C  C142  1  0.76314000  0.97824000  0.25624500  1.0
  C  C143  1  0.76861000  0.01484000  0.27808000  1.0
  C  C144  1  0.71010000  0.02414500  0.29111500  1.0
  C  C145  1  0.64710000  0.99576000  0.28407500  1.0
  C  C146  1  0.57758000  0.92530000  0.25879500  1.0
  C  C147  1  0.53872000  0.90917000  0.29090000  1.0
  C  C148  1  0.48775000  0.87115000  0.28857000  1.0
  C  C149  1  0.47474000  0.84874000  0.25406000  1.0
  C  C150  1  0.50940000  0.86716500  0.22128500  1.0
  C  C151  1  0.56038000  0.90494500  0.22365500  1.0
  C  C152  1  0.43344000  0.80389500  0.25335000  1.0
  C  C153  1  0.45814000  0.77338000  0.23452500  1.0
  C  C154  1  0.42548000  0.73037500  0.23767500  1.0
  C  C155  1  0.36690000  0.71667000  0.25944500  1.0
  C  C156  1  0.33981000  0.74703500  0.27672000  1.0
  C  C157  1  0.37322000  0.79036500  0.27400500  1.0
  C  C158  1  0.53032000  0.89518000  0.79004000  1.0
  C  C159  1  0.46040000  0.87819500  0.79233000  1.0
  C  C160  1  0.41745000  0.90456500  0.79206000  1.0
  C  C161  1  0.44281000  0.94884500  0.78999000  1.0
  C  C162  1  0.51267000  0.96629000  0.78983000  1.0
  C  C163  1  0.55602000  0.93972000  0.78969500  1.0
  C  C164  1  0.57501000  0.86615500  0.78630000  1.0
  C  C165  1  0.63836000  0.87512500  0.80391000  1.0
  C  C166  1  0.67908000  0.84717000  0.80028500  1.0
  C  C167  1  0.65768000  0.80962500  0.77878000  1.0
  C  C168  1  0.59441000  0.80086000  0.76124000  1.0
  C  C169  1  0.55403000  0.82867500  0.76476500  1.0
  C  C170  1  0.70045000  0.77955000  0.77423500  1.0
  C  C171  1  0.70111000  0.75828000  0.73953500  1.0
  C  C172  1  0.73730000  0.72812500  0.73550000  1.0
  C  C173  1  0.77453000  0.71832500  0.76593000  1.0
  C  C174  1  0.77592000  0.74049500  0.80033500  1.0
  C  C175  1  0.73923000  0.77066000  0.80447000  1.0
  C  C176  1  0.28105000  0.50416000  0.94514000  1.0
  C  C177  1  0.23647000  0.52875000  0.95291500  1.0
  C  C178  1  0.21803000  0.55279000  0.92415500  1.0
  C  C179  1  0.24456000  0.55306500  0.88733000  1.0
  C  C180  1  0.29593000  0.53344000  0.88115500  1.0
  C  C181  1  0.31402000  0.50926500  0.90970500  1.0
  C  C182  1  0.27956000  0.46578000  0.96809500  1.0
  C  C183  1  0.33403000  0.44785000  0.96662000  1.0
  C  C184  1  0.32252000  0.40385000  0.96715000  1.0
  C  C185  1  0.25672000  0.37771500  0.97047500  1.0
  C  C186  1  0.20597000  0.39616500  0.98183500  1.0
  C  C187  1  0.21711000  0.44006000  0.98035000  1.0
  C  C188  1  0.23860000  0.33589000  0.95122000  1.0
  C  C189  1  0.28158000  0.30933000  0.95199000  1.0
  C  C190  1  0.27304000  0.27592000  0.92609500  1.0
  C  C191  1  0.22154000  0.26854500  0.89867000  1.0
  C  C192  1  0.17582000  0.29331000  0.89991000  1.0
  C  C193  1  0.18422000  0.32646000  0.92576500  1.0
  C  C194  1  0.22072000  0.22045000  0.37464500  1.0
  C  C195  1  0.17969000  0.19022000  0.39876000  1.0
  C  C196  1  0.13983000  0.15241000  0.38364000  1.0
  C  C197  1  0.14041000  0.14512000  0.34438500  1.0
  C  C198  1  0.18841000  0.17219000  0.32147000  1.0
  C  C199  1  0.22938000  0.20945000  0.33670000  1.0
  C  C200  1  0.23541000  0.26591000  0.38390000  1.0
  C  C201  1  0.29668000  0.29366500  0.37302000  1.0
  C  C202  1  0.30094000  0.33625500  0.36620000  1.0
  C  C203  1  0.24368000  0.35136000  0.36955500  1.0
  C  C204  1  0.18523000  0.32490500  0.38546000  1.0
  C  C205  1  0.18126000  0.28247500  0.39281500  1.0
  C  C206  1  0.24191000  0.39158000  0.35101500  1.0
  C  C207  1  0.20769000  0.41900000  0.36731500  1.0
  C  C208  1  0.20720000  0.45691000  0.34904500  1.0
  C  C209  1  0.24110000  0.46769000  0.31445000  1.0
  C  C210  1  0.27228000  0.43937500  0.29737500  1.0
  C  C211  1  0.27227000  0.40161500  0.31529000  1.0
  C  C212  1  0.94250000  0.65629500  0.40101500  1.0
  C  C213  1  0.92532000  0.65237000  0.36216000  1.0
  C  C214  1  0.95805000  0.63164000  0.33727000  1.0
  C  C215  1  0.00902000  0.61460000  0.35050000  1.0
  C  C216  1  0.02072000  0.61392000  0.38978500  1.0
  C  C217  1  0.98726000  0.63424500  0.41490500  1.0
  C  C218  1  0.92707000  0.69102500  0.42350500  1.0
  C  C219  1  0.87105000  0.70557000  0.41417500  1.0
  C  C220  1  0.87361000  0.74830500  0.41886000  1.0
  C  C221  1  0.93124000  0.77650000  0.43423000  1.0
  C  C222  1  0.97912000  0.75956000  0.45188000  1.0
  C  C223  1  0.97765000  0.71720000  0.44611500  1.0
  C  C224  1  0.94973000  0.82170500  0.42238500  1.0
  C  C225  1  0.01544000  0.84040500  0.40954500  1.0
  C  C226  1  0.03045000  0.87811500  0.38908500  1.0
  C  C227  1  0.98028000  0.89810000  0.38078000  1.0
  C  C228  1  0.91585000  0.88148000  0.39607500  1.0
  C  C229  1  0.90069000  0.84358500  0.41672500  1.0
  C  C230  1  0.09173000  0.80099500  0.86958500  1.0
  C  C231  1  0.07896000  0.80102500  0.83044000  1.0
  C  C232  1  0.08288000  0.76686000  0.80809500  1.0
  C  C233  1  0.09972000  0.73222000  0.82458500  1.0
  C  C234  1  0.12022000  0.73436500  0.86281500  1.0
  C  C235  1  0.11608000  0.76879500  0.88538500  1.0
  C  C236  1  0.07621000  0.83422500  0.89295000  1.0
  C  C237  1  0.01155000  0.84000000  0.89075500  1.0
  C  C238  1  0.00207000  0.87997500  0.89703000  1.0
  C  C239  1  0.05741000  0.91424500  0.90524000  1.0
  C  C240  1  0.11887000  0.90626000  0.91488000  1.0
  C  C241  1  0.12845000  0.86626000  0.90835000  1.0
  C  C242  1  0.06007000  0.95611500  0.88904500  1.0
  C  C243  1  0.05005000  0.95804000  0.84956500  1.0
  C  C244  1  0.08248000  0.99418000  0.82924500  1.0
  C  C245  1  0.12248000  0.02921500  0.84842500  1.0
  C  C246  1  0.12332000  0.02991500  0.88831500  1.0
  C  C247  1  0.09291000  0.99317000  0.90864000  1.0
  H  H248  1  0.12717000  0.23776500  0.83767500  1.0
  H  H249  1  0.30263000  0.21282000  0.87901500  1.0
  H  H250  1  0.32019000  0.93489500  0.75008000  1.0
  H  H251  1  0.43903000  0.03250500  0.81720500  1.0
  H  H252  1  0.99458000  0.58627500  0.27283000  1.0
  H  H253  1  0.14705000  0.61629500  0.35473000  1.0
  H  H254  1  0.58517000  0.59069500  0.22774500  1.0
  H  H255  1  0.43751000  0.52146500  0.30172500  1.0
  H  H256  1  0.07573000  0.92517000  0.32072000  1.0
  H  H257  1  0.92308000  0.96813000  0.37169500  1.0
  H  H258  1  0.97573000  0.26608000  0.26082000  1.0
  H  H259  1  0.82951000  0.16822500  0.31327500  1.0
  H  H260  1  0.29120000  0.58225500  0.81234000  1.0
  H  H261  1  0.11387000  0.56324500  0.87532500  1.0
  H  H262  1  0.75351000  0.64579500  0.71726500  1.0
  H  H263  1  0.89048000  0.70172000  0.80247500  1.0
  H  H264  1  0.01852000  0.16840500  0.48305500  1.0
  H  H265  1  0.97058000  0.16082000  0.41884500  1.0
  H  H266  1  0.90617000  0.02504000  0.43388000  1.0
  H  H267  1  0.95483000  0.03268000  0.49732000  1.0
  H  H268  1  0.08419000  0.05862500  0.51106500  1.0
  H  H269  1  0.15243000  0.06303500  0.56787500  1.0
  H  H270  1  0.05747000  0.15391000  0.61572500  1.0
  H  H271  1  0.99206000  0.15095000  0.55754500  1.0
  H  H272  1  0.16024000  0.17639500  0.64503500  1.0
  H  H273  1  0.21854000  0.17728000  0.70511000  1.0
  H  H274  1  0.21551000  0.04614000  0.68966000  1.0
  H  H275  1  0.15356000  0.04415500  0.63057500  1.0
  H  H276  1  0.30419000  0.56412000  0.47834500  1.0
  H  H277  1  0.33843000  0.55672000  0.41246500  1.0
  H  H278  1  0.31580000  0.68076500  0.38676500  1.0
  H  H279  1  0.28162000  0.68828500  0.45211500  1.0
  H  H280  1  0.17228000  0.64810000  0.48212000  1.0
  H  H281  1  0.11076000  0.64602500  0.54139500  1.0
  H  H282  1  0.26571000  0.60563000  0.60065500  1.0
  H  H283  1  0.32561000  0.60623500  0.54095500  1.0
  H  H284  1  0.17112000  0.56680000  0.63272000  1.0
  H  H285  1  0.11644000  0.56450000  0.69377500  1.0
  H  H286  1  0.04687000  0.67286000  0.66296500  1.0
  H  H287  1  0.10488000  0.67672000  0.60169000  1.0
  H  H288  1  0.05928000  0.66774500  0.97129500  1.0
  H  H289  1  0.01306000  0.67442500  0.90894000  1.0
  H  H290  1  0.91516000  0.54071000  0.90798500  1.0
  H  H291  1  0.95755000  0.53385500  0.97158000  1.0
  H  H292  1  0.06366000  0.53155000  0.99157000  1.0
  H  H293  1  0.13442000  0.52214500  0.04431000  1.0
  H  H294  1  0.13554000  0.64550500  0.08753000  1.0
  H  H295  1  0.06181000  0.65439000  0.03596500  1.0
  H  H296  1  0.25748000  0.63737000  0.09603000  1.0
  H  H297  1  0.31515000  0.63205000  0.15602500  1.0
  H  H298  1  0.17448000  0.51120000  0.17823000  1.0
  H  H299  1  0.11786000  0.51579500  0.11797500  1.0
  H  H300  1  0.30702000  0.15398500  0.99975000  1.0
  H  H301  1  0.35525000  0.16177000  0.93618500  1.0
  H  H302  1  0.28143000  0.02684500  0.91852500  1.0
  H  H303  1  0.23325000  0.01898000  0.98266000  1.0
  H  H304  1  0.25444000  0.03210000  0.05678500  1.0
  H  H305  1  0.18654000  0.02957000  0.11396500  1.0
  H  H306  1  0.10940000  0.12980000  0.06854000  1.0
  H  H307  1  0.17975000  0.13346500  0.01275000  1.0
  H  H308  1  0.10833000  0.14607500  0.13212000  1.0
  H  H309  1  0.04444000  0.14455000  0.19039000  1.0
  H  H310  1  0.01993000  0.00990500  0.19997000  1.0
  H  H311  1  0.08055000  0.01069000  0.14067000  1.0
  H  H312  1  0.73679000  0.43973000  0.75553000  1.0
  H  H313  1  0.81295000  0.51032500  0.75463500  1.0
  H  H314  1  0.97192000  0.46048000  0.79757500  1.0
  H  H315  1  0.89430000  0.38888000  0.79819000  1.0
  H  H316  1  0.81291000  0.33053000  0.75063000  1.0
  H  H317  1  0.72028000  0.26489000  0.75201500  1.0
  H  H318  1  0.60148000  0.32971500  0.81715500  1.0
  H  H319  1  0.69255000  0.39443500  0.81546000  1.0
  H  H320  1  0.52903000  0.29449000  0.76273500  1.0
  H  H321  1  0.42593000  0.23811000  0.76670500  1.0
  H  H322  1  0.53704000  0.15025500  0.80151500  1.0
  H  H323  1  0.64190000  0.20781500  0.79786500  1.0
  H  H324  1  0.68698000  0.26379000  0.28032000  1.0
  H  H325  1  0.75187000  0.21114500  0.28129000  1.0
  H  H326  1  0.93159000  0.31042000  0.30408500  1.0
  H  H327  1  0.86760000  0.36259500  0.30441500  1.0
  H  H328  1  0.81603000  0.39734000  0.26058000  1.0
  H  H329  1  0.75801000  0.45231000  0.25650500  1.0
  H  H330  1  0.58299000  0.36826500  0.30812500  1.0
  H  H331  1  0.64280000  0.31375500  0.31428500  1.0
  H  H332  1  0.57736000  0.43539000  0.33231500  1.0
  H  H333  1  0.51931000  0.49068000  0.32647500  1.0
  H  H334  1  0.61480000  0.52737500  0.21811000  1.0
  H  H335  1  0.67196000  0.47185000  0.22356000  1.0
  H  H336  1  0.69856000  0.92192500  0.23267000  1.0
  H  H337  1  0.80754000  0.97039500  0.24584000  1.0
  H  H338  1  0.71328000  0.05206500  0.30826000  1.0
  H  H339  1  0.60264000  0.00247000  0.29564000  1.0
  H  H340  1  0.55110000  0.92407000  0.31838500  1.0
  H  H341  1  0.46221000  0.85774000  0.31436500  1.0
  H  H342  1  0.49963000  0.85113000  0.19414000  1.0
  H  H343  1  0.58894000  0.91700500  0.19836000  1.0
  H  H344  1  0.50481000  0.78248500  0.21887000  1.0
  H  H345  1  0.44741000  0.70769000  0.22395500  1.0
  H  H346  1  0.29490000  0.73724000  0.29387000  1.0
  H  H347  1  0.35293000  0.81314500  0.28874500  1.0
  H  H348  1  0.43849000  0.84428000  0.79387000  1.0
  H  H349  1  0.36395000  0.89018500  0.79302000  1.0
  H  H350  1  0.53356000  0.00028500  0.78807000  1.0
  H  H351  1  0.60945000  0.95406500  0.78782000  1.0
  H  H352  1  0.65623000  0.90347500  0.82089500  1.0
  H  H353  1  0.72765000  0.85529000  0.81395000  1.0
  H  H354  1  0.57542000  0.77213000  0.74491000  1.0
  H  H355  1  0.50631000  0.82081000  0.75015500  1.0
  H  H356  1  0.67359000  0.76494500  0.71523500  1.0
  H  H357  1  0.73625000  0.71261500  0.70830000  1.0
  H  H358  1  0.80382000  0.73369500  0.82439500  1.0
  H  H359  1  0.73974000  0.78608500  0.83170000  1.0
  H  H360  1  0.21161000  0.52661500  0.98017500  1.0
  H  H361  1  0.18013000  0.56905500  0.93019000  1.0
  H  H362  1  0.31789000  0.53336500  0.85330000  1.0
  H  H363  1  0.34853000  0.49097500  0.90221000  1.0
  H  H364  1  0.38364000  0.46714500  0.95927500  1.0
  H  H365  1  0.36348000  0.39077500  0.95954000  1.0
  H  H366  1  0.15535000  0.37666000  0.98639500  1.0
  H  H367  1  0.17408000  0.45259000  0.98314500  1.0
  H  H368  1  0.32359000  0.31553500  0.97143500  1.0
  H  H369  1  0.30847000  0.25706500  0.92700500  1.0
  H  H370  1  0.13506000  0.28869000  0.87987000  1.0
  H  H371  1  0.15059000  0.34657000  0.92372000  1.0
  H  H372  1  0.17227000  0.19804000  0.42805000  1.0
  H  H373  1  0.10228000  0.13192000  0.40159000  1.0
  H  H374  1  0.18871000  0.16716000  0.29106000  1.0
  H  H375  1  0.26038000  0.23224000  0.31740000  1.0
  H  H376  1  0.33911000  0.28163000  0.36620000  1.0
  H  H377  1  0.34747000  0.35645000  0.35522000  1.0
  H  H378  1  0.14043000  0.33561500  0.38859500  1.0
  H  H379  1  0.13317000  0.26170500  0.40098000  1.0
  H  H380  1  0.18339000  0.41189500  0.39466500  1.0
  H  H381  1  0.18407000  0.47882500  0.36303500  1.0
  H  H382  1  0.29888000  0.44718500  0.27071000  1.0
  H  H383  1  0.29672000  0.38045500  0.30119500  1.0
  H  H384  1  0.89165000  0.66889500  0.34989000  1.0
  H  H385  1  0.94758000  0.63248500  0.30722000  1.0
  H  H386  1  0.05830000  0.59970500  0.40088500  1.0
  H  H387  1  0.00024000  0.63534000  0.44474000  1.0
  H  H388  1  0.82928000  0.68552000  0.39867500  1.0
  H  H389  1  0.83446000  0.75977500  0.40593500  1.0
  H  H390  1  0.02246000  0.78014500  0.46574500  1.0
  H  H391  1  0.02093000  0.70716500  0.45504000  1.0
  H  H392  1  0.05466000  0.82453500  0.41272500  1.0
  H  H393  1  0.08096000  0.89076500  0.37858500  1.0
  H  H394  1  0.87623000  0.89641500  0.39038000  1.0
  H  H395  1  0.84983000  0.83037000  0.42653500  1.0
  H  H396  1  0.06206000  0.82639000  0.81757000  1.0
  H  H397  1  0.06674000  0.76577000  0.77873500  1.0
  H  H398  1  0.13248000  0.70763500  0.87620000  1.0
  H  H399  1  0.12723000  0.76880500  0.91543500  1.0
  H  H400  1  0.97041000  0.81520000  0.87938500  1.0
  H  H401  1  0.95422000  0.88536500  0.88978500  1.0
  H  H402  1  0.16236000  0.93216500  0.92144500  1.0
  H  H403  1  0.17851000  0.86219000  0.91044500  1.0
  H  H404  1  0.02546000  0.92983000  0.83366000  1.0
  H  H405  1  0.08192000  0.99315500  0.79848000  1.0
  H  H406  1  0.15474000  0.05679000  0.90345500  1.0
  H  H407  1  0.10167000  0.99229500  0.93892500  1.0
  Mn  Mn408  1  0.27216000  0.13801000  0.81805500  1.0
  Mn  Mn409  1  0.31332000  0.07763000  0.80218500  1.0
  Mn  Mn410  1  0.24084000  0.59412000  0.28792000  1.0
  Mn  Mn411  1  0.35307000  0.58712000  0.27794000  1.0
  Mn  Mn412  1  0.97022000  0.04748000  0.31449000  1.0
  Mn  Mn413  1  0.94491000  0.11409000  0.30174000  1.0
  Mn  Mn414  1  0.05737000  0.60131000  0.80163500  1.0
  Mn  Mn415  1  0.96133000  0.62555500  0.78297000  1.0
  N  N416  1  0.21719000  0.23746000  0.86897000  1.0
  N  N417  1  0.23758000  0.18743500  0.83259000  1.0
  N  N418  1  0.18179000  0.19444500  0.81952500  1.0
  N  N419  1  0.39723000  0.97500500  0.78510000  1.0
  N  N420  1  0.34477000  0.02579500  0.78820000  1.0
  N  N421  1  0.30705000  0.99490000  0.76731000  1.0
  N  N422  1  0.05359000  0.60280000  0.32398500  1.0
  N  N423  1  0.14663000  0.59828500  0.29594000  1.0
  N  N424  1  0.09890000  0.58849000  0.26989500  1.0
  N  N425  1  0.52642000  0.54584000  0.26792500  1.0
  N  N426  1  0.44581000  0.57877500  0.26996000  1.0
  N  N427  1  0.49158000  0.60048000  0.24604000  1.0
  N  N428  1  0.99412000  0.93374000  0.35534500  1.0
  N  N429  1  0.99109000  0.99244000  0.32581500  1.0
  N  N430  1  0.04000000  0.97970500  0.30979000  1.0
  N  N431  1  0.88710000  0.22722500  0.28820500  1.0
  N  N432  1  0.92746000  0.17103500  0.29047500  1.0
  N  N433  1  0.97376000  0.20192000  0.27419000  1.0
  N  N434  1  0.21440000  0.56871500  0.85567000  1.0
  N  N435  1  0.13880000  0.58342000  0.81780000  1.0
  N  N436  1  0.19464000  0.59000500  0.79770500  1.0
  N  N437  1  0.80914000  0.68555500  0.76184500  1.0
  N  N438  1  0.88109000  0.64640000  0.76749500  1.0
  N  N439  1  0.83846000  0.62881500  0.74036500  1.0
  O  O440  1  0.40128000  0.11734500  0.79179500  1.0
  O  O441  1  0.35831000  0.17431000  0.80358000  1.0
  O  O442  1  0.24102000  0.13870000  0.76611500  1.0
  O  O443  1  0.28448000  0.08329500  0.74960500  1.0
  O  O444  1  0.18771000  0.09923000  0.83271500  1.0
  O  O445  1  0.22444000  0.04191500  0.81382500  1.0
  O  O446  1  0.33599000  0.07395000  0.85630000  1.0
  O  O447  1  0.30366000  0.13449500  0.86912500  1.0
  O  O448  1  0.38252000  0.64726000  0.26762000  1.0
  O  O449  1  0.27487000  0.65426500  0.27427500  1.0
  O  O450  1  0.22176000  0.57952000  0.23525500  1.0
  O  O451  1  0.33016000  0.57694000  0.22368500  1.0
  O  O452  1  0.21344000  0.53419500  0.30221500  1.0
  O  O453  1  0.31872000  0.52771500  0.28845000  1.0
  O  O454  1  0.36917000  0.59836500  0.33293500  1.0
  O  O455  1  0.26390000  0.60864000  0.33981500  1.0
  O  O456  1  0.85239000  0.08203500  0.29019500  1.0
  O  O457  1  0.87981000  0.01881500  0.29911000  1.0
  O  O458  1  0.99992000  0.04681000  0.26222000  1.0
  O  O459  1  0.97160000  0.10866500  0.24876500  1.0
  O  O460  1  0.05992000  0.07894500  0.32984000  1.0
  O  O461  1  0.03727000  0.14201000  0.31403000  1.0
  O  O462  1  0.92384000  0.11701500  0.35611000  1.0
  O  O463  1  0.94127000  0.05133000  0.36616500  1.0
  O  O464  1  0.91258000  0.56672000  0.77543500  1.0
  O  O465  1  0.00467000  0.54314000  0.79117500  1.0
  O  O466  1  0.08723000  0.60729000  0.74960500  1.0
  O  O467  1  0.99491000  0.62849000  0.73016500  1.0
  O  O468  1  0.10410000  0.66025500  0.81257000  1.0
  O  O469  1  0.01402000  0.68269500  0.79164500  1.0
  O  O470  1  0.93449000  0.62181500  0.83718000  1.0
  O  O471  1  0.02412000  0.59591000  0.85255500  1.0
