# generated using pymatgen
data_Ni3H18C12N3O16
_symmetry_space_group_name_H-M   'P 1'
_cell_length_a   12.77080000
_cell_length_b   13.37745000
_cell_length_c   17.58920000
_cell_angle_alpha   90.00000000
_cell_angle_beta   91.17000000
_cell_angle_gamma   90.00000000
_symmetry_Int_Tables_number   1
_chemical_formula_structural   Ni3H18C12N3O16
_chemical_formula_sum   'Ni12 H72 C48 N12 O64'
_cell_volume   3004.32542006
_cell_formula_units_Z   4
loop_
 _symmetry_equiv_pos_site_id
 _symmetry_equiv_pos_as_xyz
  1  'x, y, z'
loop_
 _atom_site_type_symbol
 _atom_site_label
 _atom_site_symmetry_multiplicity
 _atom_site_fract_x
 _atom_site_fract_y
 _atom_site_fract_z
 _atom_site_occupancy
  C  C0  1  0.76642000  0.90156000  0.01984000  1.0
  C  C1  1  0.64800000  0.79074000  0.73948000  1.0
  C  C2  1  0.50264000  0.05528000  0.95284000  1.0
  C  C3  1  0.63498000  0.67972000  0.95286000  1.0
  C  C4  1  0.74026000  0.02210000  0.80670000  1.0
  C  C5  1  0.38822000  0.83070000  0.87674000  1.0
  C  C6  1  0.65686000  0.33994000  0.62200000  1.0
  C  C7  1  0.75572000  0.23584000  0.32910000  1.0
  C  C8  1  0.39902000  0.30152000  0.47460000  1.0
  C  C9  1  0.78066000  0.13262000  0.54226000  1.0
  C  C10  1  0.64344000  0.46088000  0.40268000  1.0
  C  C11  1  0.51558000  0.07204000  0.41732000  1.0
  C  C12  1  0.99258000  0.84486000  0.24454000  1.0
  C  C13  1  0.89950000  0.73572000  0.53552000  1.0
  C  C14  1  0.25454000  0.80198000  0.38758000  1.0
  C  C15  1  0.87232000  0.63412000  0.32276000  1.0
  C  C16  1  0.01102000  0.96102000  0.46290000  1.0
  C  C17  1  0.13824000  0.57190000  0.44322000  1.0
  C  C18  1  0.90332000  0.40344000  0.79908000  1.0
  C  C19  1  0.96390000  0.28072000  0.09792000  1.0
  C  C20  1  0.13274000  0.55914000  0.91956000  1.0
  C  C21  1  0.98724000  0.17694000  0.87654000  1.0
  C  C22  1  0.85488000  0.49822000  0.02526000  1.0
  C  C23  1  0.23748000  0.32282000  0.97732000  1.0
  C  C24  1  0.82066000  0.69362000  0.58918000  1.0
  C  C25  1  0.66962000  0.74018000  0.66538000  1.0
  C  C26  1  0.66778000  0.37792000  0.70292000  1.0
  C  C27  1  0.85874000  0.40932000  0.71894000  1.0
  C  C28  1  0.94534000  0.21860000  0.16756000  1.0
  C  C29  1  0.83390000  0.19140000  0.27574000  1.0
  C  C30  1  0.83862000  0.94212000  0.08104000  1.0
  C  C31  1  0.98024000  0.90248000  0.17166000  1.0
  C  C32  1  0.15306000  0.66172000  0.88802000  1.0
  C  C33  1  0.27778000  0.79356000  0.86580000  1.0
  C  C34  1  0.16222000  0.47008000  0.47492000  1.0
  C  C35  1  0.28918000  0.33708000  0.48760000  1.0
  C  C36  1  0.36416000  0.83750000  0.37384000  1.0
  C  C37  1  0.49060000  0.97110000  0.38456000  1.0
  C  C38  1  0.47758000  0.15864000  0.98042000  1.0
  C  C39  1  0.34658000  0.28670000  0.99538000  1.0
  C  C40  1  0.77552000  0.56590000  0.06014000  1.0
  C  C41  1  0.63312000  0.56902000  0.96250000  1.0
  C  C42  1  0.80102000  0.55052000  0.29974000  1.0
  C  C43  1  0.64288000  0.56774000  0.37734000  1.0
  C  C44  1  0.85247000  0.04944000  0.56578000  1.0
  C  C45  1  0.01128000  0.06766000  0.48882000  1.0
  C  C46  1  0.97602000  0.07400000  0.84406000  1.0
  C  C47  1  0.80754000  0.10436000  0.77672000  1.0
  H  H48  1  0.85906000  0.63706000  0.62680000  1.0
  H  H49  1  0.75972000  0.65546000  0.55348000  1.0
  H  H50  1  0.82486000  0.79032000  0.68002000  1.0
  H  H51  1  0.60616000  0.75856000  0.62334000  1.0
  H  H52  1  0.66896000  0.65824000  0.67590000  1.0
  H  H53  1  0.75904000  0.83746000  0.60326000  1.0
  H  H54  1  0.68050000  0.31306000  0.74166000  1.0
  H  H55  1  0.59156000  0.41126000  0.71898000  1.0
  H  H56  1  0.74850000  0.50300000  0.66862000  1.0
  H  H57  1  0.86036000  0.33228000  0.69504000  1.0
  H  H58  1  0.91248000  0.45492000  0.68390000  1.0
  H  H59  1  0.73652000  0.49394000  0.76338000  1.0
  H  H60  1  0.01956000  0.21124000  0.20144000  1.0
  H  H61  1  0.92056000  0.14346000  0.14716000  1.0
  H  H62  1  0.88978000  0.32880000  0.23906000  1.0
  H  H63  1  0.80030000  0.12188000  0.25030000  1.0
  H  H64  1  0.90534000  0.17168000  0.30990000  1.0
  H  H65  1  0.79510000  0.27650000  0.18138000  1.0
  H  H66  1  0.79102000  0.98538000  0.12194000  1.0
  H  H67  1  0.89594000  0.99334000  0.05420000  1.0
  H  H68  1  0.83966000  0.82158000  0.15368000  1.0
  H  H69  1  0.05532000  0.90270000  0.14060000  1.0
  H  H70  1  0.96292000  0.98074000  0.18872000  1.0
  H  H71  1  0.92780000  0.81218000  0.08308000  1.0
  H  H72  1  0.09996000  0.71598000  0.91598000  1.0
  H  H73  1  0.13360000  0.65972000  0.82602000  1.0
  H  H74  1  0.28086000  0.69600000  0.95784000  1.0
  H  H75  1  0.25786000  0.79172000  0.80384000  1.0
  H  H76  1  0.22500000  0.84800000  0.89382000  1.0
  H  H77  1  0.31264000  0.64228000  0.87284000  1.0
  H  H78  1  0.10472000  0.41586000  0.45018000  1.0
  H  H79  1  0.15314000  0.47290000  0.53774000  1.0
  H  H80  1  0.27806000  0.43782000  0.39804000  1.0
  H  H81  1  0.27472000  0.33444000  0.54982000  1.0
  H  H82  1  0.23476000  0.28256000  0.45978000  1.0
  H  H83  1  0.32330000  0.48854000  0.48212000  1.0
  H  H84  1  0.37776000  0.83500000  0.31150000  1.0
  H  H85  1  0.41894000  0.78294000  0.40122000  1.0
  H  H86  1  0.32934000  0.98874000  0.38054000  1.0
  H  H87  1  0.54922000  0.91648000  0.40728000  1.0
  H  H88  1  0.49700000  0.97552000  0.32158000  1.0
  H  H89  1  0.37776000  0.93760000  0.46358000  1.0
  H  H90  1  0.53108000  0.21128000  0.95130000  1.0
  H  H91  1  0.49448000  0.16288000  0.04276000  1.0
  H  H92  1  0.35628000  0.18872000  0.90416000  1.0
  H  H93  1  0.35818000  0.28622000  0.05832000  1.0
  H  H94  1  0.40190000  0.34278000  0.97210000  1.0
  H  H95  1  0.31752000  0.13458000  0.98752000  1.0
  H  H96  1  0.79480000  0.64452000  0.04684000  1.0
  H  H97  1  0.78572000  0.56156000  0.12264000  1.0
  H  H98  1  0.65562000  0.46206000  0.04592000  1.0
  H  H99  1  0.68296000  0.53446000  0.91892000  1.0
  H  H100  1  0.55162000  0.54228000  0.95204000  1.0
  H  H101  1  0.61692000  0.57414000  0.07896000  1.0
  H  H102  1  0.81932000  0.48626000  0.33740000  1.0
  H  H103  1  0.82138000  0.52496000  0.24202000  1.0
  H  H104  1  0.67942000  0.65334000  0.28360000  1.0
  H  H105  1  0.68346000  0.61556000  0.42030000  1.0
  H  H106  1  0.55984000  0.59242000  0.37362000  1.0
  H  H107  1  0.64742000  0.53476000  0.26222000  1.0
  H  H108  1  0.83482000  0.98510000  0.52808000  1.0
  H  H109  1  0.83208000  0.02366000  0.62350000  1.0
  H  H110  1  0.97354000  0.15256000  0.58266000  1.0
  H  H111  1  0.09426000  0.09244000  0.49310000  1.0
  H  H112  1  0.97098000  0.11582000  0.44592000  1.0
  H  H113  1  0.00592000  0.03388000  0.60362000  1.0
  H  H114  1  0.93642000  0.02396000  0.88488000  1.0
  H  H115  1  0.05600000  0.04418000  0.83474000  1.0
  H  H116  1  0.95490000  0.12746000  0.73406000  1.0
  H  H117  1  0.79730000  0.17142000  0.81264000  1.0
  H  H118  1  0.77544000  0.12634000  0.72010000  1.0
  H  H119  1  0.92562000  0.00596000  0.74432000  1.0
  N  N120  1  0.77198000  0.77256000  0.63556000  1.0
  N  N121  1  0.75199500  0.45272000  0.71416000  1.0
  N  N122  1  0.86224000  0.26180000  0.21494000  1.0
  N  N123  1  0.89466000  0.86154000  0.12222000  1.0
  N  N124  1  0.26296000  0.69344000  0.89940000  1.0
  N  N125  1  0.26952000  0.43836000  0.45726000  1.0
  N  N126  1  0.38424000  0.93866000  0.40420000  1.0
  N  N127  1  0.36810000  0.18700000  0.96334000  1.0
  N  N128  1  0.66620000  0.53938000  0.03998000  1.0
  N  N129  1  0.68916000  0.57912000  0.30153000  1.0
  N  N130  1  0.96426000  0.07842000  0.56442000  1.0
  N  N131  1  0.91898000  0.07614000  0.77022000  1.0
  Ni  Ni132  1  0.55230000  0.86192000  0.98440000  1.0
  Ni  Ni133  1  0.54220000  0.94738000  0.81758000  1.0
  Ni  Ni134  1  0.74240000  0.83056000  0.87526000  1.0
  Ni  Ni135  1  0.56632000  0.18808000  0.54080000  1.0
  Ni  Ni136  1  0.55514000  0.27140000  0.37298000  1.0
  Ni  Ni137  1  0.75288000  0.31576000  0.47764000  1.0
  Ni  Ni138  1  0.08572000  0.69082000  0.32130000  1.0
  Ni  Ni139  1  0.09976000  0.77060000  0.49044000  1.0
  Ni  Ni140  1  0.90032000  0.81656000  0.38830000  1.0
  Ni  Ni141  1  0.09344000  0.36306000  0.86476000  1.0
  Ni  Ni142  1  0.06778000  0.43628000  0.03392000  1.0
  Ni  Ni143  1  0.88194000  0.32392000  0.94948000  1.0
  O  O144  1  0.41974000  0.86008000  0.94452000  1.0
  O  O145  1  0.44062000  0.85516000  0.81664000  1.0
  O  O146  1  0.67680000  0.86064000  0.03744000  1.0
  O  O147  1  0.79716000  0.90456000  0.95006000  1.0
  O  O148  1  0.69414000  0.75466000  0.79972000  1.0
  O  O149  1  0.60264000  0.87864000  0.74016000  1.0
  O  O150  1  0.54910000  0.99346000  0.99964000  1.0
  O  O151  1  0.47328000  0.02724000  0.88412000  1.0
  O  O152  1  0.55278000  0.73040000  0.97152000  1.0
  O  O153  1  0.72310000  0.72380000  0.93596000  1.0
  O  O154  1  0.77732000  0.93094000  0.81148000  1.0
  O  O155  1  0.64136000  0.04114000  0.81616000  1.0
  O  O156  1  0.49414000  0.84462000  0.07246000  1.0
  O  O157  1  0.47374000  0.01210000  0.74634000  1.0
  O  O158  1  0.61270000  0.88008000  0.89228000  1.0
  O  O159  1  0.86734000  0.78262000  0.85936000  1.0
  O  O160  1  0.56102000  0.07776000  0.48386000  1.0
  O  O161  1  0.48810000  0.15218000  0.37946000  1.0
  O  O162  1  0.57028000  0.29458000  0.60230000  1.0
  O  O163  1  0.73958000  0.33414000  0.57950000  1.0
  O  O164  1  0.78680000  0.30390000  0.37806000  1.0
  O  O165  1  0.65832000  0.20680000  0.32590000  1.0
  O  O166  1  0.43340000  0.22452000  0.51408000  1.0
  O  O167  1  0.44998000  0.33592000  0.41674000  1.0
  O  O168  1  0.69142000  0.14226000  0.57699000  1.0
  O  O169  1  0.81116000  0.19672000  0.49170000  1.0
  O  O170  1  0.69748000  0.43700000  0.46368000  1.0
  O  O171  1  0.61156000  0.39254000  0.35418000  1.0
  O  O172  1  0.51030000  0.12032000  0.61422000  1.0
  O  O173  1  0.48968000  0.28448000  0.28540000  1.0
  O  O174  1  0.62434000  0.25846000  0.46420000  1.0
  O  O175  1  0.87608000  0.37086000  0.49012000  1.0
  O  O176  1  0.09258000  0.57918000  0.37678000  1.0
  O  O177  1  0.16568000  0.65100000  0.48238000  1.0
  O  O178  1  0.08000000  0.79892000  0.26124000  1.0
  O  O179  1  0.91080000  0.83618000  0.28720000  1.0
  O  O180  1  0.86896000  0.80458000  0.48756000  1.0
  O  O181  1  0.99664000  0.70582000  0.53796000  1.0
  O  O182  1  0.21902000  0.72658000  0.34696000  1.0
  O  O183  1  0.20490000  0.83506000  0.44652000  1.0
  O  O184  1  0.95986000  0.64574000  0.28618000  1.0
  O  O185  1  0.84246000  0.69726000  0.37426000  1.0
  O  O186  1  0.95566000  0.93768000  0.40234000  1.0
  O  O187  1  0.04460000  0.89220000  0.51054000  1.0
  O  O188  1  0.14012000  0.62484000  0.24618000  1.0
  O  O189  1  0.16652000  0.78200000  0.57768000  1.0
  O  O190  1  0.02928000  0.75944000  0.39964000  1.0
  O  O191  1  0.77668000  0.87130000  0.37772000  1.0
  O  O192  1  0.19022000  0.29220000  0.91546000  1.0
  O  O193  1  0.20170000  0.39886000  0.01580000  1.0
  O  O194  1  0.99964000  0.43274000  0.80980000  1.0
  O  O195  1  0.85882000  0.34378000  0.84782000  1.0
  O  O196  1  0.88514000  0.29570000  0.05050000  1.0
  O  O197  1  0.05412000  0.32472000  0.08908000  1.0
  O  O198  1  0.16256000  0.48040000  0.88134000  1.0
  O  O199  1  0.08146000  0.55050000  0.98244000  1.0
  O  O200  1  0.03536000  0.24478000  0.83646000  1.0
  O  O201  1  0.92982000  0.20082000  0.93404000  1.0
  O  O202  1  0.82978000  0.44496000  0.96564000  1.0
  O  O203  1  0.94186000  0.48236000  0.06390000  1.0
  O  O204  1  0.16898000  0.35214000  0.78348000  1.0
  O  O205  1  0.11914000  0.49592000  0.11464000  1.0
  O  O206  1  0.01448000  0.37418000  0.94946000  1.0
  O  O207  1  0.75473000  0.27590000  0.94964000  1.0
