# generated using pymatgen
data_Er2H27C42(NO4)3
_symmetry_space_group_name_H-M   'P 1'
_cell_length_a   15.10825000
_cell_length_b   16.64730000
_cell_length_c   44.28314922
_cell_angle_alpha   93.62601734
_cell_angle_beta   94.16900412
_cell_angle_gamma   110.90300000
_symmetry_Int_Tables_number   1
_chemical_formula_structural   Er2H27C42(NO4)3
_chemical_formula_sum   'Er6 H81 C126 N9 O36'
_cell_volume   10329.52584812
_cell_formula_units_Z   3
loop_
 _symmetry_equiv_pos_site_id
 _symmetry_equiv_pos_as_xyz
  1  'x, y, z'
loop_
 _atom_site_type_symbol
 _atom_site_label
 _atom_site_symmetry_multiplicity
 _atom_site_fract_x
 _atom_site_fract_y
 _atom_site_fract_z
 _atom_site_occupancy
  C  C0  1  0.40372500  0.68770500  0.04472500  1.0
  C  C1  1  0.91756500  0.91756500  0.10230500  1.0
  C  C2  1  0.69899500  0.66544500  0.05154500  1.0
  C  C3  1  0.90138500  0.02440500  0.04048500  1.0
  C  C4  1  0.60647500  0.78961500  0.98848500  1.0
  C  C5  1  0.64701500  0.99419500  0.05597500  1.0
  C  C6  1  0.27358000  0.72955000  0.34778000  1.0
  C  C7  1  0.41069000  0.18860000  0.41684000  1.0
  C  C8  1  0.47046750  0.94837250  0.37491250  1.0
  C  C9  1  0.28880500  0.16145000  0.34679500  1.0
  C  C10  1  0.26087000  0.94367500  0.30023000  1.0
  C  C11  1  0.10116500  0.96222000  0.37167500  1.0
  C  C12  1  0.85817500  0.94738500  0.70876500  1.0
  C  C13  1  0.56976000  0.55498000  0.60707000  1.0
  C  C14  1  0.77032000  0.67906000  0.67016000  1.0
  C  C15  1  0.40835000  0.43574000  0.68365000  1.0
  C  C16  1  0.65665500  0.75840500  0.75756500  1.0
  C  C17  1  0.48968000  0.70769000  0.68905000  1.0
  C  C18  1  0.70159500  0.57605500  0.04907500  1.0
  C  C19  1  0.78656500  0.56061500  0.04678500  1.0
  C  C20  1  0.78434000  0.47600000  0.04006000  1.0
  C  C21  1  0.69714500  0.40491500  0.03544500  1.0
  C  C22  1  0.61326000  0.41984000  0.03972000  1.0
  C  C23  1  0.61533500  0.50389500  0.04658500  1.0
  C  C24  1  0.64200000  0.08182000  0.05370000  1.0
  C  C25  1  0.71878000  0.15567000  0.06699000  1.0
  C  C26  1  0.73040500  0.23825500  0.05833500  1.0
  C  C27  1  0.66491000  0.24923000  0.03641000  1.0
  C  C28  1  0.58368000  0.17698000  0.02530000  1.0
  C  C29  1  0.57192000  0.09411000  0.03391000  1.0
  C  C30  1  0.00954500  0.95109000  0.38333000  1.0
  C  C31  1  0.93453500  0.87071000  0.37730500  1.0
  C  C32  1  0.85869500  0.84876500  0.39502500  1.0
  C  C33  1  0.85617000  0.90726000  0.41883000  1.0
  C  C34  1  0.92749750  0.98955750  0.42361750  1.0
  C  C35  1  0.00386000  0.01160000  0.40594000  1.0
  C  C36  1  0.55684250  0.93454750  0.38654250  1.0
  C  C37  1  0.62732000  0.00084500  0.40559000  1.0
  C  C38  1  0.69851000  0.98377000  0.42253000  1.0
  C  C39  1  0.70125500  0.90065500  0.42048500  1.0
  C  C40  1  0.63365000  0.83498000  0.40046000  1.0
  C  C41  1  0.56177000  0.85183000  0.38356500  1.0
  C  C42  1  0.93259500  0.03202500  0.71815500  1.0
  C  C43  1  0.91556500  0.10715500  0.71191500  1.0
  C  C44  1  0.97653500  0.18737500  0.72555500  1.0
  C  C45  1  0.05602000  0.19389000  0.74522000  1.0
  C  C46  1  0.07588000  0.11937000  0.75039000  1.0
  C  C47  1  0.01406500  0.03871500  0.73706500  1.0
  C  C48  1  0.32945000  0.38474000  0.70000000  1.0
  C  C49  1  0.34574500  0.33504500  0.72269500  1.0
  C  C50  1  0.27613000  0.29899000  0.74201000  1.0
  C  C51  1  0.19010500  0.31351500  0.73915500  1.0
  C  C52  1  0.17291000  0.36125000  0.71601000  1.0
  C  C53  1  0.24175500  0.39604500  0.69635500  1.0
  C  C54  1  0.87242500  0.69350500  0.67876500  1.0
  C  C55  1  0.94479500  0.77420500  0.67717500  1.0
  C  C56  1  0.03840000  0.79007000  0.68946000  1.0
  C  C57  1  0.06132500  0.72537500  0.70338500  1.0
  C  C58  1  0.99101000  0.64323000  0.70292000  1.0
  C  C59  1  0.89774000  0.62720000  0.69065000  1.0
  C  C60  1  0.39319500  0.70928500  0.69265500  1.0
  C  C61  1  0.32733000  0.64521000  0.70738000  1.0
  C  C62  1  0.24285000  0.65436000  0.71505000  1.0
  C  C63  1  0.22221500  0.72710500  0.70795500  1.0
  C  C64  1  0.28432500  0.78798500  0.69129500  1.0
  C  C65  1  0.36901000  0.77918000  0.68372000  1.0
  C  C66  1  0.97281000  0.10990000  0.03520000  1.0
  C  C67  1  0.07014500  0.12318500  0.03614500  1.0
  C  C68  1  0.13649500  0.20309500  0.03017500  1.0
  C  C69  1  0.10715000  0.27152000  0.02271000  1.0
  C  C70  1  0.01028500  0.25915500  0.02295500  1.0
  C  C71  1  0.94405000  0.17964000  0.02940000  1.0
  C  C72  1  0.32271000  0.60284000  0.04106000  1.0
  C  C73  1  0.25626500  0.58129500  0.01523500  1.0
  C  C74  1  0.19670000  0.49520000  0.00669000  1.0
  C  C75  1  0.20319000  0.42788000  0.02322000  1.0
  C  C76  1  0.26566000  0.44970000  0.05016000  1.0
  C  C77  1  0.32377000  0.53651000  0.05923000  1.0
  C  C78  1  0.26887000  0.64475000  0.33447000  1.0
  C  C79  1  0.18317500  0.57349000  0.33319000  1.0
  C  C80  1  0.16974500  0.49814500  0.31479500  1.0
  C  C81  1  0.24204500  0.49237500  0.29773500  1.0
  C  C82  1  0.33010500  0.56147500  0.30049500  1.0
  C  C83  1  0.34321500  0.63746500  0.31861500  1.0
  C  C84  1  0.27218000  0.22706000  0.32906000  1.0
  C  C85  1  0.34917500  0.29047500  0.31818500  1.0
  C  C86  1  0.33388500  0.35233500  0.30092500  1.0
  C  C87  1  0.24126500  0.35122500  0.29422500  1.0
  C  C88  1  0.16432500  0.28761500  0.30491500  1.0
  C  C89  1  0.17960000  0.22585000  0.32230000  1.0
  C  C90  1  0.26066500  0.97794500  0.27044500  1.0
  C  C91  1  0.28989000  0.06729000  0.26867000  1.0
  C  C92  1  0.28414000  0.10014000  0.24073000  1.0
  C  C93  1  0.25137000  0.04449000  0.21401000  1.0
  C  C94  1  0.22696500  0.95495500  0.21549500  1.0
  C  C95  1  0.22962500  0.92188500  0.24362500  1.0
  C  C96  1  0.99963000  0.95213000  0.12553000  1.0
  C  C97  1  0.08750500  0.94892500  0.11857500  1.0
  C  C98  1  0.16922000  0.98955000  0.13861000  1.0
  C  C99  1  0.16488000  0.03537000  0.16580000  1.0
  C  C100  1  0.07671000  0.03751000  0.17307000  1.0
  C  C101  1  0.99420500  0.99536500  0.15316500  1.0
  C  C102  1  0.45512500  0.27214000  0.43512500  1.0
  C  C103  1  0.54316500  0.32937500  0.42813500  1.0
  C  C104  1  0.58286500  0.41252500  0.44292500  1.0
  C  C105  1  0.53464500  0.44065500  0.46469500  1.0
  C  C106  1  0.44572500  0.38331500  0.47149500  1.0
  C  C107  1  0.40716000  0.29899000  0.45724000  1.0
  C  C108  1  0.57528000  0.55065000  0.57409000  1.0
  C  C109  1  0.53834000  0.60033000  0.55626000  1.0
  C  C110  1  0.53762500  0.59225500  0.52469500  1.0
  C  C111  1  0.57499000  0.53561000  0.51060000  1.0
  C  C112  1  0.61631500  0.48887500  0.52854500  1.0
  C  C113  1  0.61463000  0.49508000  0.56008000  1.0
  C  C114  1  0.64438500  0.73335500  0.78860500  1.0
  C  C115  1  0.60631000  0.64573000  0.79343000  1.0
  C  C116  1  0.61080000  0.62024000  0.82272000  1.0
  C  C117  1  0.65461000  0.68179000  0.84766000  1.0
  C  C118  1  0.68971500  0.76992500  0.84278500  1.0
  C  C119  1  0.68295000  0.79554000  0.81355000  1.0
  C  C120  1  0.62078500  0.76804500  0.95696500  1.0
  C  C121  1  0.71352500  0.79432500  0.94817500  1.0
  C  C122  1  0.73091000  0.75922000  0.92084000  1.0
  C  C123  1  0.65600000  0.69830000  0.90180000  1.0
  C  C124  1  0.56227500  0.67614500  0.90948500  1.0
  C  C125  1  0.54475500  0.71078500  0.93700500  1.0
  Er  Er126  1  0.77206000  0.87040000  0.05642000  1.0
  Er  Er127  1  0.59024500  0.79472500  0.04888500  1.0
  Er  Er128  1  0.32207500  0.03914500  0.37930500  1.0
  Er  Er129  1  0.25378000  0.88253000  0.35552000  1.0
  Er  Er130  1  0.54896000  0.55897000  0.66507000  1.0
  Er  Er131  1  0.70575500  0.80787500  0.70423500  1.0
  H  H132  1  0.85417000  0.61404000  0.04864000  1.0
  H  H133  1  0.85016000  0.46660000  0.03640000  1.0
  H  H134  1  0.54523500  0.36687500  0.03573500  1.0
  H  H135  1  0.54810500  0.51240500  0.04844500  1.0
  H  H136  1  0.77417500  0.14895500  0.08240500  1.0
  H  H137  1  0.79463500  0.29225500  0.06674500  1.0
  H  H138  1  0.53328000  0.18363000  0.00790000  1.0
  H  H139  1  0.51247000  0.03911000  0.02304000  1.0
  H  H140  1  0.75261500  0.33020500  0.00874500  1.0
  H  H141  1  0.93698500  0.82266500  0.36004500  1.0
  H  H142  1  0.80304500  0.78556500  0.39070500  1.0
  H  H143  1  0.92496000  0.03572500  0.44155000  1.0
  H  H144  1  0.06106000  0.07363000  0.41130000  1.0
  H  H145  1  0.62544750  0.06528750  0.40837750  1.0
  H  H146  1  0.75143000  0.03519500  0.43743500  1.0
  H  H147  1  0.63596500  0.77066500  0.39832500  1.0
  H  H148  1  0.50800000  0.79924000  0.36936000  1.0
  H  H149  1  0.75822000  0.82183000  0.44243000  1.0
  H  H150  1  0.85290000  0.10373000  0.69758000  1.0
  H  H151  1  0.96116500  0.24451500  0.72115500  1.0
  H  H152  1  0.13797500  0.12377500  0.76519500  1.0
  H  H153  1  0.02840000  0.98157000  0.74227000  1.0
  H  H154  1  0.41317000  0.32603000  0.72605000  1.0
  H  H155  1  0.28977000  0.26129000  0.75956000  1.0
  H  H156  1  0.10653000  0.37237000  0.71349000  1.0
  H  H157  1  0.22805500  0.43518500  0.67931500  1.0
  H  H158  1  0.14720500  0.27358500  0.78066500  1.0
  H  H159  1  0.92843000  0.82626000  0.66773000  1.0
  H  H160  1  0.09167500  0.85420500  0.68975500  1.0
  H  H161  1  0.00724000  0.59282000  0.71369000  1.0
  H  H162  1  0.84460000  0.56375000  0.69183000  1.0
  H  H163  1  0.34334000  0.59046000  0.71451000  1.0
  H  H164  1  0.19616500  0.60726500  0.72816500  1.0
  H  H165  1  0.27004000  0.84498000  0.68589000  1.0
  H  H166  1  0.41752500  0.82925500  0.67207500  1.0
  H  H167  1  0.17386500  0.80972500  0.73274500  1.0
  H  H168  1  0.09485500  0.07131500  0.04095500  1.0
  H  H169  1  0.21030000  0.20992000  0.02956000  1.0
  H  H170  1  0.98514500  0.30953500  0.01647500  1.0
  H  H171  1  0.86960000  0.17148000  0.02846000  1.0
  H  H172  1  0.25475000  0.63033000  0.00047000  1.0
  H  H173  1  0.15140500  0.47997500  0.98542500  1.0
  H  H174  1  0.27480000  0.39918000  0.06280000  1.0
  H  H175  1  0.37582000  0.55051000  0.07885000  1.0
  H  H176  1  0.22560000  0.32802000  0.99931000  1.0
  H  H177  1  0.12452000  0.57747000  0.34508000  1.0
  H  H178  1  0.10194000  0.44502000  0.31314000  1.0
  H  H179  1  0.38714000  0.55752000  0.28776000  1.0
  H  H180  1  0.40978500  0.69164500  0.31914500  1.0
  H  H181  1  0.42120500  0.29235500  0.32305500  1.0
  H  H182  1  0.39392500  0.40131500  0.29286500  1.0
  H  H183  1  0.09264500  0.28640500  0.29989500  1.0
  H  H184  1  0.11918500  0.17715500  0.33033500  1.0
  H  H185  1  0.26628500  0.42960500  0.25923500  1.0
  H  H186  1  0.31655000  0.11181000  0.28885000  1.0
  H  H187  1  0.30585500  0.16929500  0.23984500  1.0
  H  H188  1  0.20467500  0.91080500  0.19501500  1.0
  H  H189  1  0.20813500  0.85272500  0.24437500  1.0
  H  H190  1  0.09343000  0.91611000  0.09734000  1.0
  H  H191  1  0.23637500  0.98682500  0.13265500  1.0
  H  H192  1  0.07232500  0.07269500  0.19396500  1.0
  H  H193  1  0.92728000  0.99938000  0.15879000  1.0
  H  H194  1  0.31214000  0.08536000  0.17545000  1.0
  H  H195  1  0.58089000  0.31014000  0.41089000  1.0
  H  H196  1  0.65047000  0.45572000  0.43689000  1.0
  H  H197  1  0.40605000  0.40412000  0.48766000  1.0
  H  H198  1  0.33823500  0.25626500  0.46249500  1.0
  H  H199  1  0.50776500  0.64371500  0.56662500  1.0
  H  H200  1  0.50733500  0.62977500  0.51113500  1.0
  H  H201  1  0.64781500  0.44646500  0.51805500  1.0
  H  H202  1  0.64439500  0.45687500  0.57347500  1.0
  H  H203  1  0.64186500  0.56202500  0.47225500  1.0
  H  H204  1  0.57661000  0.59667000  0.77442000  1.0
  H  H205  1  0.58475500  0.55198500  0.82573500  1.0
  H  H206  1  0.72614500  0.81876500  0.86134500  1.0
  H  H207  1  0.71404000  0.86346000  0.81025000  1.0
  H  H208  1  0.77337500  0.83821500  0.96317500  1.0
  H  H209  1  0.80335500  0.77670500  0.91504500  1.0
  H  H210  1  0.50383000  0.62902000  0.89489000  1.0
  H  H211  1  0.47268500  0.68929500  0.94335500  1.0
  H  H212  1  0.64471500  0.58692500  0.87698500  1.0
  N  N213  1  0.69144500  0.32431500  0.01951500  1.0
  N  N214  1  0.77797250  0.88579750  0.43700250  1.0
  N  N215  1  0.11794500  0.27720500  0.75884500  1.0
  N  N216  1  0.14907000  0.74613000  0.72255000  1.0
  N  N217  1  0.16892000  0.34184000  0.00761000  1.0
  N  N218  1  0.22471500  0.41625500  0.27752500  1.0
  N  N219  1  0.25048000  0.08147000  0.18561000  1.0
  N  N220  1  0.57308000  0.52911000  0.47806000  1.0
  N  N221  1  0.67769000  0.65373000  0.87630000  1.0
  O  O222  1  0.82865500  0.90131500  0.10616500  1.0
  O  O223  1  0.92605500  0.90835500  0.07357500  1.0
  O  O224  1  0.77709000  0.73612000  0.05469000  1.0
  O  O225  1  0.61496500  0.67219500  0.04896500  1.0
  O  O226  1  0.91485500  0.95050500  0.04053500  1.0
  O  O227  1  0.81783000  0.01297000  0.04993000  1.0
  O  O228  1  0.67629333  0.82856000  0.00961000  1.0
  O  O229  1  0.52636500  0.75553500  0.00057500  1.0
  O  O230  1  0.73483000  0.99119000  0.06031000  1.0
  O  O231  1  0.57124000  0.92198000  0.04936000  1.0
  O  O232  1  0.45067500  0.71909500  0.02171500  1.0
  O  O233  1  0.45761000  0.72252000  0.07023000  1.0
  O  O234  1  0.34706500  0.11913000  0.42456500  1.0
  O  O235  1  0.42467500  0.17619500  0.38879500  1.0
  O  O236  1  0.45453500  0.01466500  0.38765500  1.0
  O  O237  1  0.40311750  0.88746750  0.35671250  1.0
  O  O238  1  0.37190000  0.15429000  0.35243000  1.0
  O  O239  1  0.22442500  0.10352500  0.36027500  1.0
  O  O240  1  0.29955500  0.99016500  0.32575500  1.0
  O  O241  1  0.21836000  0.86335000  0.30505000  1.0
  O  O242  1  0.17352500  0.03790000  0.37680000  1.0
  O  O243  1  0.11445500  0.89243500  0.36094500  1.0
  O  O244  1  0.20132500  0.74192500  0.35925500  1.0
  O  O245  1  0.33945500  0.80361000  0.34274500  1.0
  O  O246  1  0.56051500  0.62145500  0.62280500  1.0
  O  O247  1  0.56830500  0.49092500  0.62360500  1.0
  O  O248  1  0.70612000  0.60716000  0.67733000  1.0
  O  O249  1  0.74509500  0.74508500  0.66466500  1.0
  O  O250  1  0.39701000  0.48109000  0.66105000  1.0
  O  O251  1  0.49835500  0.45576500  0.69458500  1.0
  O  O252  1  0.66902000  0.70714000  0.73558000  1.0
  O  O253  1  0.66984500  0.83713500  0.74983500  1.0
  O  O254  1  0.51393500  0.64471500  0.69860500  1.0
  O  O255  1  0.55760000  0.77969000  0.68464000  1.0
  O  O256  1  0.85544000  0.87638000  0.72125000  1.0
  O  O257  1  0.77789000  0.93883000  0.69240000  1.0
