# generated using pymatgen
data_Zn4H15C12N3O14
_symmetry_space_group_name_H-M   'P 1'
_cell_length_a   9.91770000
_cell_length_b   10.56556667
_cell_length_c   36.36984648
_cell_angle_alpha   85.32329708
_cell_angle_beta   84.28228802
_cell_angle_gamma   66.04300000
_symmetry_Int_Tables_number   1
_chemical_formula_structural   Zn4H15C12N3O14
_chemical_formula_sum   'Zn12 H45 C36 N9 O42'
_cell_volume   3461.86904861
_cell_formula_units_Z   3
loop_
 _symmetry_equiv_pos_site_id
 _symmetry_equiv_pos_as_xyz
  1  'x, y, z'
loop_
 _atom_site_type_symbol
 _atom_site_label
 _atom_site_symmetry_multiplicity
 _atom_site_fract_x
 _atom_site_fract_y
 _atom_site_fract_z
 _atom_site_occupancy
  C  C0  1  0.37926000  0.66430000  0.93598000  1.0
  C  C1  1  0.25068667  0.88678000  0.82281000  1.0
  C  C2  1  0.68963000  0.28848000  0.95140000  1.0
  C  C3  1  0.79053000  0.08544000  0.06672000  1.0
  C  C4  1  0.01703000  0.65968000  0.59791000  1.0
  C  C5  1  0.73781000  0.05746000  0.58086000  1.0
  C  C6  1  0.18469000  0.77732000  0.48451000  1.0
  C  C7  1  0.98078667  0.31082000  0.61360000  1.0
  C  C8  1  0.38701333  0.02724000  0.61933000  1.0
  C  C9  1  0.11941000  0.72688000  0.28889000  1.0
  C  C10  1  0.08587667  0.37099000  0.30406000  1.0
  C  C11  1  0.32032000  0.55433000  0.40158000  1.0
  C  C12  1  0.75287667  0.05884000  0.27226000  1.0
  C  C13  1  0.72825667  0.43996000  0.26720000  1.0
  C  C14  1  0.58328000  0.22077000  0.15839000  1.0
  C  C15  1  0.12448000  0.38161000  0.94540000  1.0
  C  C16  1  0.57456333  0.11487000  0.58940000  1.0
  C  C17  1  0.54596000  0.99750000  0.61233000  1.0
  C  C18  1  0.85325000  0.90608000  0.28003000  1.0
  C  C19  1  0.02211000  0.87623000  0.27714000  1.0
  C  C20  1  0.84414667  0.47735000  0.27937000  1.0
  C  C21  1  0.95964667  0.34216000  0.29599000  1.0
  C  C22  1  0.52770000  0.55399000  0.94762000  1.0
  C  C23  1  0.54326000  0.40340000  0.94104000  1.0
  C  C24  1  0.92675667  0.46263000  0.60202000  1.0
  C  C25  1  0.04558000  0.51332000  0.61103000  1.0
  C  C26  1  0.25203000  0.93388000  0.78301000  1.0
  C  C27  1  0.23492000  0.74840000  0.44467000  1.0
  C  C28  1  0.31925000  0.59044000  0.44048000  1.0
  C  C29  1  0.60097000  0.20361000  0.11740000  1.0
  C  C30  1  0.75396000  0.08806000  0.10754000  1.0
  C  C31  1  0.08160000  0.26216000  0.95649000  1.0
  C  C32  1  0.01286000  0.63741000  0.92774000  1.0
  C  C33  1  0.15693000  0.12725000  0.73693000  1.0
  C  C34  1  0.98128000  0.51061000  0.93639000  1.0
  C  C35  1  0.14989000  0.08866000  0.77743000  1.0
  H  H36  1  0.27299000  0.42360000  0.90744000  1.0
  H  H37  1  0.32301000  0.25432000  0.91877000  1.0
  H  H38  1  0.17346000  0.40393000  0.96905000  1.0
  H  H39  1  0.93392000  0.49012000  0.91218000  1.0
  H  H40  1  0.89877000  0.53002000  0.96063000  1.0
  H  H41  1  0.38387000  0.20879000  0.56156000  1.0
  H  H42  1  0.53396000  0.21818000  0.53800000  1.0
  H  H43  1  0.53987000  0.20690000  0.60661000  1.0
  H  H44  1  0.59839333  0.89963000  0.59718000  1.0
  H  H45  1  0.59597333  0.98048000  0.63935000  1.0
  H  H46  1  0.86114000  0.84150000  0.22694000  1.0
  H  H47  1  0.71506000  0.83945000  0.25526000  1.0
  H  H48  1  0.82234000  0.87570000  0.30859000  1.0
  H  H49  1  0.05772000  0.90011000  0.24841000  1.0
  H  H50  1  0.03828000  0.94614000  0.29588000  1.0
  H  H51  1  0.74604667  0.54507000  0.33189000  1.0
  H  H52  1  0.69267000  0.66926000  0.29736000  1.0
  H  H53  1  0.89501667  0.51730000  0.25501000  1.0
  H  H54  1  0.91265000  0.30616000  0.32177000  1.0
  H  H55  1  0.99832667  0.25949000  0.27551000  1.0
  H  H56  1  0.46398000  0.55454000  0.00396000  1.0
  H  H57  1  0.55108000  0.66268000  0.98996000  1.0
  H  H58  1  0.61691000  0.57124000  0.92971000  1.0
  H  H59  1  0.45292000  0.38499000  0.95805000  1.0
  H  H60  1  0.52946000  0.39564000  0.91147000  1.0
  H  H61  1  0.74503000  0.64417000  0.61360000  1.0
  H  H62  1  0.70731000  0.50160000  0.61743000  1.0
  H  H63  1  0.91242000  0.47647000  0.57176000  1.0
  H  H64  1  0.05792000  0.50227000  0.64135000  1.0
  H  H65  1  0.15351000  0.44591000  0.59716000  1.0
  H  H66  1  0.98768000  0.10140000  0.81936000  1.0
  H  H67  1  0.92612000  0.21600000  0.78369000  1.0
  H  H68  1  0.21711000  0.86933000  0.76663000  1.0
  H  H69  1  0.36721000  0.91907000  0.77330000  1.0
  H  H70  1  0.35660333  0.81062000  0.40315000  1.0
  H  H71  1  0.27563000  0.92670000  0.43607000  1.0
  H  H72  1  0.13519667  0.78888000  0.42838000  1.0
  H  H73  1  0.43481000  0.55679000  0.44827000  1.0
  H  H74  1  0.26364000  0.53377000  0.45888000  1.0
  H  H75  1  0.66528667  0.36816000  0.10335000  1.0
  H  H76  1  0.47921667  0.41161000  0.10341000  1.0
  H  H77  1  0.51460000  0.17105000  0.10952000  1.0
  H  H78  1  0.84126000  0.10424000  0.12108000  1.0
  H  H79  1  0.75233000  0.98649000  0.11770000  1.0
  H  H80  1  0.18946667  0.15252000  0.79278000  1.0
  N  N81  1  0.23221000  0.34673000  0.91320000  1.0
  N  N82  1  0.49702000  0.15277000  0.55527000  1.0
  N  N83  1  0.82737000  0.82061000  0.25411000  1.0
  N  N84  1  0.78211000  0.58354000  0.30717000  1.0
  N  N85  1  0.54825000  0.56665000  0.98627000  1.0
  N  N86  1  0.78571000  0.53966000  0.62251000  1.0
  N  N87  1  0.99684000  0.11381000  0.79053000  1.0
  N  N88  1  0.33052667  0.82061000  0.43162000  1.0
  N  N89  1  0.58445667  0.33465000  0.09726000  1.0
  O  O90  1  0.28084000  0.74845000  0.96003000  1.0
  O  O91  1  0.34701000  0.67039000  0.90153000  1.0
  O  O92  1  0.05886000  0.93284000  0.90495000  1.0
  O  O93  1  0.30727000  0.93479000  0.84667000  1.0
  O  O94  1  0.77575000  0.19714000  0.92708000  1.0
  O  O95  1  0.72898000  0.27858000  0.98534000  1.0
  O  O96  1  0.71799000  0.04528667  0.04518000  1.0
  O  O97  1  0.02089000  0.74604000  0.62147000  1.0
  O  O98  1  0.00551000  0.69590000  0.56257000  1.0
  O  O99  1  0.10552000  0.92366000  0.56489000  1.0
  O  O100  1  0.79416333  0.98917000  0.55050000  1.0
  O  O101  1  0.81949333  0.04153000  0.60846000  1.0
  O  O102  1  0.04479333  0.85153000  0.49399000  1.0
  O  O103  1  0.27875000  0.72303000  0.51025000  1.0
  O  O104  1  0.02012667  0.21682000  0.58844000  1.0
  O  O105  1  0.01065333  0.27404000  0.64823000  1.0
  O  O106  1  0.09208000  0.97066000  0.64342000  1.0
  O  O107  1  0.31894000  0.07000000  0.65173000  1.0
  O  O108  1  0.21639000  0.64032000  0.26519000  1.0
  O  O109  1  0.10611000  0.68395000  0.32343000  1.0
  O  O110  1  0.37994667  0.40646000  0.32199000  1.0
  O  O111  1  0.08585667  0.41620000  0.33664000  1.0
  O  O112  1  0.17591667  0.37959000  0.27592000  1.0
  O  O113  1  0.21622333  0.51903000  0.39221000  1.0
  O  O114  1  0.41597000  0.57088000  0.37606000  1.0
  O  O115  1  0.64610000  0.12994000  0.29695000  1.0
  O  O116  1  0.76474000  0.11616000  0.23921000  1.0
  O  O117  1  0.46269000  0.35350000  0.24369000  1.0
  O  O118  1  0.73582667  0.40579000  0.23303000  1.0
  O  O119  1  0.64743667  0.40585000  0.29319000  1.0
  O  O120  1  0.52460000  0.14884000  0.18042000  1.0
  O  O121  1  0.06600000  0.65651000  0.89416000  1.0
  O  O122  1  0.00423000  0.71791000  0.95458000  1.0
  O  O123  1  0.18236000  0.80595000  0.83447000  1.0
  O  O124  1  0.97776000  0.99252000  0.98167000  1.0
  O  O125  1  0.02819000  0.25174000  0.99050000  1.0
  O  O126  1  0.07195000  0.18650000  0.93071000  1.0
  O  O127  1  0.09806667  0.07693000  0.71427000  1.0
  O  O128  1  0.64285667  0.29464000  0.17253000  1.0
  O  O129  1  0.23387333  0.19897000  0.72372000  1.0
  O  O130  1  0.32001000  0.00179000  0.59336000  1.0
  O  O131  1  0.88465000  0.13726000  0.05216000  1.0
  Zn  Zn132  1  0.16253000  0.77055000  0.88414000  1.0
  Zn  Zn133  1  0.08137000  0.85200000  0.95029000  1.0
  Zn  Zn134  1  0.98720000  0.86843000  0.54325000  1.0
  Zn  Zn135  1  0.01070000  0.92203000  0.60895000  1.0
  Zn  Zn136  1  0.12588333  0.09864000  0.66422000  1.0
  Zn  Zn137  1  0.12841000  0.02873000  0.59787000  1.0
  Zn  Zn138  1  0.20163000  0.50491000  0.34320000  1.0
  Zn  Zn139  1  0.31414667  0.44826000  0.27685000  1.0
  Zn  Zn140  1  0.52920667  0.32047000  0.28850000  1.0
  Zn  Zn141  1  0.64693333  0.29519000  0.22247000  1.0
  Zn  Zn142  1  0.90920333  0.15879000  0.00209000  1.0
  Zn  Zn143  1  0.97043000  0.07356000  0.93644000  1.0
