# generated using pymatgen
data_CdH18C30N4O9
_symmetry_space_group_name_H-M   'P 1'
_cell_length_a   29.45260000
_cell_length_b   29.45260000
_cell_length_c   50.68330000
_cell_angle_alpha   95.50800000
_cell_angle_beta   96.48100000
_cell_angle_gamma   93.74600000
_symmetry_Int_Tables_number   1
_chemical_formula_structural   CdH18C30N4O9
_chemical_formula_sum   'Cd8 H144 C240 N32 O72'
_cell_volume   43353.70561304
_cell_formula_units_Z   8
loop_
 _symmetry_equiv_pos_site_id
 _symmetry_equiv_pos_as_xyz
  1  'x, y, z'
loop_
 _atom_site_type_symbol
 _atom_site_label
 _atom_site_symmetry_multiplicity
 _atom_site_fract_x
 _atom_site_fract_y
 _atom_site_fract_z
 _atom_site_occupancy
  Cd  Cd0  1  0.89044000  0.92147000  0.63414000  1.0
  Cd  Cd1  1  0.98792000  0.93582000  0.64768000  1.0
  Cd  Cd2  1  0.95836000  0.89475000  0.33842000  1.0
  Cd  Cd3  1  0.41607000  0.48035000  0.82764000  1.0
  Cd  Cd4  1  0.38646000  0.46472000  0.12276000  1.0
  Cd  Cd5  1  0.48514000  0.47517000  0.12471000  1.0
  Cd  Cd6  1  0.42079000  0.38248000  0.81932000  1.0
  Cd  Cd7  1  0.97522000  0.99141000  0.35283000  1.0
  H  H8  1  0.46163000  0.82316000  0.74592000  1.0
  H  H9  1  0.43318000  0.83654000  0.71629000  1.0
  H  H10  1  0.47658000  0.94240000  0.77066000  1.0
  H  H11  1  0.46228000  0.88576000  0.77722000  1.0
  H  H12  1  0.55467000  0.90507000  0.72666000  1.0
  H  H13  1  0.54716000  0.93344000  0.75728000  1.0
  H  H14  1  0.91777000  0.52266000  0.73609000  1.0
  H  H15  1  0.42617000  0.90606000  0.24173000  1.0
  H  H16  1  0.44219000  0.94695000  0.26961000  1.0
  H  H17  1  0.50900000  0.93674000  0.23143000  1.0
  H  H18  1  0.39111000  0.94663000  0.19883000  1.0
  H  H19  1  0.58458000  0.81472000  0.71310000  1.0
  H  H20  1  0.65599000  0.87562000  0.61581000  1.0
  H  H21  1  0.73422000  0.89310000  0.60606000  1.0
  H  H22  1  0.30337000  0.82417000  0.73281000  1.0
  H  H23  1  0.19885000  0.85158000  0.66832000  1.0
  H  H24  1  0.12132000  0.86188000  0.64809000  1.0
  H  H25  1  0.02507000  0.68495000  0.72010000  1.0
  H  H26  1  0.03644000  0.60601000  0.72714000  1.0
  H  H27  1  0.91064000  0.56341000  0.67644000  1.0
  H  H28  1  0.99326000  0.82871000  0.70562000  1.0
  H  H29  1  0.00091000  0.75333000  0.72021000  1.0
  H  H30  1  0.90104000  0.69553000  0.65433000  1.0
  H  H31  1  0.89228000  0.77149000  0.64062000  1.0
  H  H32  1  0.21288000  0.90302000  0.25539000  1.0
  H  H33  1  0.29077000  0.91423000  0.24335000  1.0
  H  H34  1  0.07704000  0.87783000  0.29090000  1.0
  H  H35  1  0.15442000  0.87542000  0.27795000  1.0
  H  H36  1  0.90685000  0.60733000  0.26560000  1.0
  H  H37  1  0.92575000  0.53953000  0.23886000  1.0
  H  H38  1  0.06909000  0.57430000  0.26611000  1.0
  H  H39  1  0.89883000  0.76143000  0.28748000  1.0
  H  H40  1  0.90875000  0.68548000  0.26698000  1.0
  H  H41  1  0.02652000  0.67607000  0.32482000  1.0
  H  H42  1  0.01680000  0.75297000  0.34511000  1.0
  H  H43  1  0.65685000  0.91477000  0.29544000  1.0
  H  H44  1  0.58077000  0.93510000  0.27781000  1.0
  H  H45  1  0.81071000  0.88940000  0.30300000  1.0
  H  H46  1  0.73138000  0.90305000  0.28876000  1.0
  H  H47  1  0.42295000  0.76525000  0.11089000  1.0
  H  H48  1  0.42528000  0.84868000  0.11835000  1.0
  H  H49  1  0.42679000  0.83907000  0.20286000  1.0
  H  H50  1  0.48505000  0.62571000  0.11602000  1.0
  H  H51  1  0.48028000  0.70829000  0.12285000  1.0
  H  H52  1  0.37532000  0.68929000  0.17450000  1.0
  H  H53  1  0.37922000  0.60610000  0.16714000  1.0
  H  H54  1  0.72771000  0.55704000  0.73936000  1.0
  H  H55  1  0.62572000  0.52554000  0.78917000  1.0
  H  H56  1  0.55482000  0.51497000  0.80897000  1.0
  H  H57  1  0.12950000  0.32597000  0.75667000  1.0
  H  H58  1  0.04709000  0.32174000  0.74452000  1.0
  H  H59  1  0.18871000  0.47602000  0.78496000  1.0
  H  H60  1  0.50652000  0.70791000  0.76509000  1.0
  H  H61  1  0.54735000  0.77776000  0.75564000  1.0
  H  H62  1  0.50139000  0.84969000  0.82473000  1.0
  H  H63  1  0.40392000  0.59756000  0.77441000  1.0
  H  H64  1  0.43008000  0.67382000  0.76520000  1.0
  H  H65  1  0.47564000  0.71003000  0.84903000  1.0
  H  H66  1  0.44879000  0.63346000  0.85837000  1.0
  H  H67  1  0.43591000  0.90771000  0.70301000  1.0
  H  H68  1  0.49355000  0.91685000  0.69700000  1.0
  H  H69  1  0.58766000  0.89516000  0.63218000  1.0
  H  H70  1  0.51340000  0.86853000  0.64519000  1.0
  H  H71  1  0.78108000  0.91129000  0.69053000  1.0
  H  H72  1  0.70333000  0.89480000  0.70032000  1.0
  H  H73  1  0.35601000  0.96408000  0.73139000  1.0
  H  H74  1  0.26949000  0.48455000  0.80197000  1.0
  H  H75  1  0.87580000  0.42987000  0.68215000  1.0
  H  H76  1  0.92677000  0.40587000  0.69593000  1.0
  H  H77  1  0.88824000  0.51078000  0.70284000  1.0
  H  H78  1  0.83313000  0.42334000  0.74140000  1.0
  H  H79  1  0.84860000  0.48261000  0.75071000  1.0
  H  H80  1  0.91049000  0.40130000  0.75411000  1.0
  H  H81  1  0.92461000  0.45955000  0.76643000  1.0
  H  H82  1  0.93711000  0.33714000  0.20804000  1.0
  H  H83  1  0.91876000  0.37324000  0.18430000  1.0
  H  H84  1  0.96017000  0.44200000  0.25291000  1.0
  H  H85  1  0.93738000  0.38368000  0.24784000  1.0
  H  H86  1  0.05130000  0.40949000  0.21877000  1.0
  H  H87  1  0.02906000  0.41039000  0.24983000  1.0
  H  H88  1  0.95241000  0.44584000  0.18266000  1.0
  H  H89  1  0.01263000  0.44961000  0.18983000  1.0
  H  H90  1  0.92291000  0.22165000  0.63585000  1.0
  H  H91  1  0.89799000  0.29979000  0.63878000  1.0
  H  H92  1  0.87099000  0.28720000  0.71966000  1.0
  H  H93  1  0.98517000  0.17150000  0.65991000  1.0
  H  H94  1  0.94451000  0.24771000  0.27907000  1.0
  H  H95  1  0.97025000  0.30558000  0.25157000  1.0
  H  H96  1  0.10828000  0.30214000  0.28996000  1.0
  H  H97  1  0.04338000  0.21887000  0.34881000  1.0
  H  H98  1  0.14219000  0.36978000  0.17688000  1.0
  H  H99  1  0.06519000  0.34077000  0.18246000  1.0
  H  H100  1  0.01061000  0.42403000  0.12272000  1.0
  H  H101  1  0.23035000  0.44778000  0.09186000  1.0
  H  H102  1  0.15092000  0.42920000  0.09952000  1.0
  H  H103  1  0.19366000  0.43686000  0.18430000  1.0
  H  H104  1  0.27252000  0.45474000  0.17668000  1.0
  H  H105  1  0.78660000  0.47787000  0.16198000  1.0
  H  H106  1  0.85612000  0.45758000  0.18742000  1.0
  H  H107  1  0.78630000  0.46083000  0.25793000  1.0
  H  H108  1  0.59946000  0.52622000  0.19224000  1.0
  H  H109  1  0.67623000  0.52164000  0.21473000  1.0
  H  H110  1  0.71514000  0.45255000  0.14240000  1.0
  H  H111  1  0.63875000  0.45831000  0.11991000  1.0
  H  H112  1  0.37429000  0.31854000  0.14139000  1.0
  H  H113  1  0.38163000  0.24517000  0.15958000  1.0
  H  H114  1  0.52421000  0.28435000  0.18706000  1.0
  H  H115  1  0.51692000  0.35748000  0.16894000  1.0
  H  H116  1  0.67422000  0.39640000  0.74509000  1.0
  H  H117  1  0.74493000  0.41271000  0.72556000  1.0
  H  H118  1  0.52553000  0.38259000  0.76350000  1.0
  H  H119  1  0.59602000  0.39342000  0.74324000  1.0
  H  H120  1  0.52168000  0.26793000  0.81849000  1.0
  H  H121  1  0.54107000  0.19276000  0.80075000  1.0
  H  H122  1  0.39796000  0.15572000  0.77299000  1.0
  H  H123  1  0.37875000  0.23039000  0.79127000  1.0
  H  H124  1  0.05297000  0.46902000  0.74903000  1.0
  H  H125  1  0.20359000  0.33660000  0.75354000  1.0
  H  H126  1  0.28392000  0.34493000  0.77150000  1.0
  H  H127  1  0.41088000  0.17143000  0.15880000  1.0
  H  H128  1  0.51302000  0.18421000  0.24377000  1.0
  H  H129  1  0.95606000  0.16763000  0.27639000  1.0
  H  H130  1  0.85326000  0.13883000  0.68549000  1.0
  H  H131  1  0.99615000  0.08968000  0.65205000  1.0
  H  H132  1  0.94398000  0.09438000  0.29369000  1.0
  H  H133  1  0.03061000  0.14481000  0.36640000  1.0
  H  H134  1  0.41677000  0.10419000  0.18400000  1.0
  H  H135  1  0.55036000  0.14761000  0.76261000  1.0
  H  H136  1  0.56359000  0.07534000  0.73791000  1.0
  H  H137  1  0.44428000  0.03332000  0.25968000  1.0
  H  H138  1  0.39617000  0.02651000  0.23436000  1.0
  H  H139  1  0.86332000  0.05705000  0.67664000  1.0
  H  H140  1  0.63489000  0.07534000  0.28036000  1.0
  H  H141  1  0.75538000  0.04177000  0.32656000  1.0
  H  H142  1  0.83456000  0.02832000  0.34031000  1.0
  H  H143  1  0.42925000  0.02099000  0.75102000  1.0
  H  H144  1  0.19679000  0.99903000  0.33042000  1.0
  H  H145  1  0.12032000  0.00103000  0.34339000  1.0
  H  H146  1  0.43299000  0.98636000  0.18848000  1.0
  H  H147  1  0.51511000  0.99184000  0.21977000  1.0
  H  H148  1  0.12847000  0.99655000  0.69100000  1.0
  H  H149  1  0.28424000  0.97910000  0.70578000  1.0
  H  H150  1  0.20566000  0.98641000  0.71114000  1.0
  H  H151  1  0.33387000  0.98358000  0.32192000  1.0
  C  C152  1  0.49926000  0.82313000  0.68892000  1.0
  C  C153  1  0.46782000  0.84015000  0.72799000  1.0
  C  C154  1  0.45977000  0.90901000  0.76123000  1.0
  C  C155  1  0.37879000  0.88365000  0.75007000  1.0
  C  C156  1  0.55030000  0.86207000  0.78237000  1.0
  C  C157  1  0.53793000  0.90018000  0.74479000  1.0
  C  C158  1  0.47060000  0.92044000  0.71289000  1.0
  C  C159  1  0.48460000  0.89178000  0.73672000  1.0
  C  C160  1  0.98518000  0.52955000  0.70429000  1.0
  C  C161  1  0.42316000  0.94240000  0.24907000  1.0
  C  C162  1  0.49978000  0.97262000  0.23494000  1.0
  C  C163  1  0.43536000  0.90164000  0.16640000  1.0
  C  C164  1  0.42844000  0.95748000  0.20084000  1.0
  C  C165  1  0.01078000  0.51168000  0.23252000  1.0
  C  C166  1  0.81137000  0.91043000  0.64206000  1.0
  C  C167  1  0.94326000  0.92610000  0.58852000  1.0
  C  C168  1  0.93954000  0.85199000  0.66189000  1.0
  C  C169  1  0.07044000  0.93400000  0.65873000  1.0
  C  C170  1  0.96699000  0.93901000  0.39791000  1.0
  C  C171  1  0.04599000  0.94115000  0.32700000  1.0
  C  C172  1  0.95493000  0.81176000  0.32739000  1.0
  C  C173  1  0.87811000  0.95054000  0.33062000  1.0
  C  C174  1  0.43426000  0.55907000  0.13576000  1.0
  C  C175  1  0.41758000  0.56109000  0.82150000  1.0
  C  C176  1  0.95715000  0.92550000  0.50739000  1.0
  C  C177  1  0.94847000  0.92532000  0.56007000  1.0
  C  C178  1  0.96097000  0.92749000  0.47892000  1.0
  C  C179  1  0.96577000  0.93382000  0.42627000  1.0
  C  C180  1  0.54300000  0.83993000  0.68041000  1.0
  C  C181  1  0.76364000  0.90314000  0.64754000  1.0
  C  C182  1  0.58690000  0.87721000  0.64979000  1.0
  C  C183  1  0.54464000  0.86225000  0.65727000  1.0
  C  C184  1  0.58426000  0.83256000  0.69540000  1.0
  C  C185  1  0.62746000  0.86938000  0.66555000  1.0
  C  C186  1  0.67341000  0.88394000  0.65889000  1.0
  C  C187  1  0.75403000  0.90397000  0.67403000  1.0
  C  C188  1  0.70946000  0.89446000  0.67963000  1.0
  C  C189  1  0.68278000  0.88435000  0.63230000  1.0
  C  C190  1  0.72762000  0.89397000  0.62668000  1.0
  C  C191  1  0.33541000  0.89294000  0.73459000  1.0
  C  C192  1  0.11902000  0.93000000  0.66802000  1.0
  C  C193  1  0.28831000  0.94526000  0.71192000  1.0
  C  C194  1  0.32929000  0.93656000  0.72644000  1.0
  C  C195  1  0.29984000  0.85844000  0.72726000  1.0
  C  C196  1  0.25329000  0.91003000  0.70537000  1.0
  C  C197  1  0.20841000  0.91824000  0.69118000  1.0
  C  C198  1  0.18814000  0.95938000  0.69693000  1.0
  C  C199  1  0.18401000  0.88360000  0.67311000  1.0
  C  C200  1  0.13981000  0.88957000  0.66143000  1.0
  C  C201  1  0.97373000  0.57797000  0.70313000  1.0
  C  C202  1  0.94249000  0.80624000  0.67181000  1.0
  C  C203  1  0.99876000  0.65900000  0.71122000  1.0
  C  C204  1  0.00552000  0.61354000  0.71518000  1.0
  C  C205  1  0.93498000  0.58962000  0.68721000  1.0
  C  C206  1  0.95972000  0.66946000  0.69490000  1.0
  C  C207  1  0.95260000  0.71721000  0.68808000  1.0
  C  C208  1  0.97282000  0.79988000  0.69435000  1.0
  C  C209  1  0.97751000  0.75611000  0.70254000  1.0
  C  C210  1  0.92117000  0.72413000  0.66601000  1.0
  C  C211  1  0.91612000  0.76792000  0.65806000  1.0
  C  C212  1  0.31896000  0.95020000  0.28156000  1.0
  C  C213  1  0.09231000  0.93971000  0.31812000  1.0
  C  C214  1  0.23958000  0.91961000  0.27024000  1.0
  C  C215  1  0.28418000  0.92604000  0.26335000  1.0
  C  C216  1  0.22975000  0.93749000  0.29554000  1.0
  C  C217  1  0.18213000  0.93722000  0.30299000  1.0
  C  C218  1  0.10291000  0.90458000  0.29950000  1.0
  C  C219  1  0.14734000  0.90334000  0.29199000  1.0
  C  C220  1  0.99919000  0.55166000  0.24982000  1.0
  C  C221  1  0.95708000  0.76313000  0.31785000  1.0
  C  C222  1  0.94248000  0.60053000  0.26550000  1.0
  C  C223  1  0.95333000  0.56160000  0.25033000  1.0
  C  C224  1  0.03333000  0.58095000  0.26564000  1.0
  C  C225  1  0.97776000  0.63012000  0.28011000  1.0
  C  C226  1  0.96832000  0.67431000  0.29436000  1.0
  C  C227  1  0.92629000  0.74279000  0.29616000  1.0
  C  C228  1  0.93183000  0.69893000  0.28452000  1.0
  C  C229  1  0.99814000  0.69412000  0.31672000  1.0
  C  C230  1  0.99245000  0.73804000  0.32844000  1.0
  C  C231  1  0.82916000  0.95774000  0.32276000  1.0
  C  C232  1  0.65222000  0.94989000  0.29188000  1.0
  C  C233  1  0.60859000  0.96161000  0.28209000  1.0
  C  C234  1  0.73653000  0.97350000  0.30670000  1.0
  C  C235  1  0.79892000  0.92270000  0.30842000  1.0
  C  C236  1  0.75316000  0.93046000  0.30045000  1.0
  C  C237  1  0.42654000  0.85104000  0.16134000  1.0
  C  C238  1  0.43242000  0.60931000  0.14096000  1.0
  C  C239  1  0.42348000  0.78150000  0.13102000  1.0
  C  C240  1  0.42435000  0.82908000  0.13532000  1.0
  C  C241  1  0.42542000  0.82362000  0.18251000  1.0
  C  C242  1  0.42415000  0.75547000  0.15279000  1.0
  C  C243  1  0.42701000  0.70518000  0.14895000  1.0
  C  C244  1  0.46094000  0.63903000  0.12884000  1.0
  C  C245  1  0.45797000  0.68635000  0.13259000  1.0
  C  C246  1  0.39933000  0.67565000  0.16170000  1.0
  C  C247  1  0.40154000  0.62811000  0.15745000  1.0
  C  C248  1  0.52669000  0.81972000  0.78904000  1.0
  C  C249  1  0.42517000  0.60942000  0.81702000  1.0
  C  C250  1  0.50458000  0.73913000  0.77791000  1.0
  C  C251  1  0.52809000  0.77895000  0.77263000  1.0
  C  C252  1  0.50275000  0.81892000  0.81144000  1.0
  C  C253  1  0.47997000  0.73978000  0.80004000  1.0
  C  C254  1  0.45618000  0.69724000  0.80633000  1.0
  C  C255  1  0.41878000  0.62200000  0.79095000  1.0
  C  C256  1  0.43403000  0.66555000  0.78565000  1.0
  C  C257  1  0.45905000  0.68603000  0.83273000  1.0
  C  C258  1  0.44376000  0.64227000  0.83805000  1.0
  C  C259  1  0.11335000  0.35747000  0.75437000  1.0
  C  C260  1  0.06590000  0.35502000  0.74759000  1.0
  C  C261  1  0.20897000  0.44711000  0.78158000  1.0
  C  C262  1  0.86115000  0.34407000  0.68017000  1.0
  C  C263  1  0.89155000  0.41404000  0.69979000  1.0
  C  C264  1  0.91321000  0.49783000  0.71783000  1.0
  C  C265  1  0.78590000  0.49713000  0.71946000  1.0
  C  C266  1  0.84541000  0.45527000  0.73349000  1.0
  C  C267  1  0.92495000  0.43451000  0.74860000  1.0
  C  C268  1  0.99211000  0.39309000  0.74098000  1.0
  C  C269  1  0.89407000  0.45015000  0.72465000  1.0
  C  C270  1  0.98472000  0.36278000  0.15704000  1.0
  C  C271  1  0.95046000  0.36318000  0.19579000  1.0
  C  C272  1  0.94377000  0.41467000  0.23746000  1.0
  C  C273  1  0.86832000  0.44229000  0.23985000  1.0
  C  C274  1  0.05861000  0.33584000  0.24790000  1.0
  C  C275  1  0.02342000  0.39385000  0.22879000  1.0
  C  C276  1  0.98054000  0.44781000  0.19937000  1.0
  C  C277  1  0.97535000  0.40469000  0.21519000  1.0
  C  C278  1  0.30597000  0.45826000  0.12922000  1.0
  C  C279  1  0.43095000  0.45419000  0.07090000  1.0
  C  C280  1  0.44065000  0.38923000  0.14328000  1.0
  C  C281  1  0.56515000  0.48932000  0.14223000  1.0
  C  C282  1  0.41654000  0.43187000  0.87583000  1.0
  C  C283  1  0.49146000  0.44155000  0.80027000  1.0
  C  C284  1  0.43764000  0.30226000  0.81349000  1.0
  C  C285  1  0.33186000  0.42003000  0.80016000  1.0
  C  C286  1  0.41809000  0.43320000  0.95840000  1.0
  C  C287  1  0.41605000  0.43087000  0.90465000  1.0
  C  C288  1  0.42049000  0.43624000  0.98760000  1.0
  C  C289  1  0.42689000  0.44686000  0.04168000  1.0
  C  C290  1  0.88260000  0.29989000  0.67954000  1.0
  C  C291  1  0.91223000  0.23638000  0.65435000  1.0
  C  C292  1  0.89799000  0.28077000  0.65603000  1.0
  C  C293  1  0.88298000  0.27375000  0.70128000  1.0
  C  C294  1  0.90969000  0.21047000  0.67601000  1.0
  C  C295  1  0.04170000  0.30783000  0.26799000  1.0
  C  C296  1  0.98036000  0.25992000  0.28158000  1.0
  C  C297  1  0.99508000  0.29314000  0.26601000  1.0
  C  C298  1  0.07216000  0.29108000  0.28744000  1.0
  C  C299  1  0.01253000  0.24108000  0.29910000  1.0
  C  C300  1  0.00020000  0.19925000  0.31143000  1.0
  C  C301  1  0.02089000  0.19214000  0.33691000  1.0
  C  C302  1  0.03138000  0.38089000  0.15354000  1.0
  C  C303  1  0.25758000  0.45188000  0.13364000  1.0
  C  C304  1  0.11337000  0.38249000  0.16538000  1.0
  C  C305  1  0.06933000  0.36595000  0.16856000  1.0
  C  C306  1  0.03903000  0.41198000  0.13487000  1.0
  C  C307  1  0.11972000  0.41387000  0.14676000  1.0
  C  C308  1  0.16639000  0.43048000  0.14241000  1.0
  C  C309  1  0.22255000  0.44582000  0.11211000  1.0
  C  C310  1  0.17718000  0.43536000  0.11649000  1.0
  C  C311  1  0.20118000  0.43904000  0.16401000  1.0
  C  C312  1  0.24630000  0.44954000  0.15966000  1.0
  C  C313  1  0.82679000  0.45683000  0.22477000  1.0
  C  C314  1  0.61320000  0.49248000  0.15436000  1.0
  C  C315  1  0.78616000  0.47353000  0.18290000  1.0
  C  C316  1  0.82602000  0.46228000  0.19753000  1.0
  C  C317  1  0.78711000  0.46430000  0.23692000  1.0
  C  C318  1  0.74653000  0.47886000  0.19551000  1.0
  C  C319  1  0.70209000  0.48686000  0.18047000  1.0
  C  C320  1  0.62478000  0.51094000  0.18102000  1.0
  C  C321  1  0.66875000  0.50814000  0.19394000  1.0
  C  C322  1  0.69090000  0.47011000  0.15337000  1.0
  C  C323  1  0.64691000  0.47310000  0.14043000  1.0
  C  C324  1  0.44493000  0.34410000  0.15381000  1.0
  C  C325  1  0.45816000  0.21570000  0.18772000  1.0
  C  C326  1  0.45370000  0.25856000  0.17458000  1.0
  C  C327  1  0.40727000  0.31138000  0.15118000  1.0
  C  C328  1  0.41163000  0.26902000  0.16136000  1.0
  C  C329  1  0.49133000  0.29122000  0.17699000  1.0
  C  C330  1  0.48712000  0.33325000  0.16660000  1.0
  C  C331  1  0.74239000  0.48633000  0.73077000  1.0
  C  C332  1  0.53447000  0.44788000  0.78789000  1.0
  C  C333  1  0.68540000  0.43161000  0.74345000  1.0
  C  C334  1  0.72615000  0.44098000  0.73252000  1.0
  C  C335  1  0.71655000  0.52154000  0.74020000  1.0
  C  C336  1  0.66053000  0.46789000  0.75263000  1.0
  C  C337  1  0.61721000  0.46018000  0.76479000  1.0
  C  C338  1  0.54716000  0.41392000  0.76929000  1.0
  C  C339  1  0.58799000  0.41998000  0.75785000  1.0
  C  C340  1  0.60419000  0.49417000  0.78329000  1.0
  C  C341  1  0.56349000  0.48806000  0.79473000  1.0
  C  C342  1  0.44878000  0.25508000  0.80602000  1.0
  C  C343  1  0.47121000  0.16852000  0.78472000  1.0
  C  C344  1  0.49440000  0.24343000  0.80887000  1.0
  C  C345  1  0.50554000  0.20049000  0.79838000  1.0
  C  C346  1  0.42532000  0.17954000  0.78322000  1.0
  C  C347  1  0.41424000  0.22238000  0.79369000  1.0
  C  C348  1  0.04292000  0.39509000  0.74581000  1.0
  C  C349  1  0.28313000  0.41525000  0.78838000  1.0
  C  C350  1  0.06912000  0.43721000  0.75026000  1.0
  C  C351  1  0.13840000  0.40039000  0.75918000  1.0
  C  C352  1  0.18872000  0.40530000  0.76827000  1.0
  C  C353  1  0.25548000  0.45204000  0.79145000  1.0
  C  C354  1  0.21695000  0.36894000  0.76442000  1.0
  C  C355  1  0.26344000  0.37378000  0.77453000  1.0
  C  C356  1  0.43323000  0.17415000  0.17745000  1.0
  C  C357  1  0.49058000  0.18041000  0.22513000  1.0
  C  C358  1  0.14380000  0.96511000  0.68552000  1.0
  C  C359  1  0.97161000  0.16372000  0.29636000  1.0
  C  C360  1  0.91840000  0.16136000  0.67334000  1.0
  C  C361  1  0.95872000  0.14674000  0.66400000  1.0
  C  C362  1  0.88477000  0.12842000  0.67846000  1.0
  C  C363  1  0.01362000  0.14993000  0.34695000  1.0
  C  C364  1  0.46486000  0.10105000  0.23359000  1.0
  C  C365  1  0.96501000  0.09999000  0.65958000  1.0
  C  C366  1  0.98658000  0.11401000  0.33128000  1.0
  C  C367  1  0.96511000  0.12152000  0.30613000  1.0
  C  C368  1  0.46514000  0.13872000  0.21609000  1.0
  C  C369  1  0.43705000  0.13566000  0.19162000  1.0
  C  C370  1  0.52415000  0.11961000  0.76062000  1.0
  C  C371  1  0.53153000  0.07845000  0.74624000  1.0
  C  C372  1  0.48236000  0.12443000  0.77115000  1.0
  C  C373  1  0.36371000  0.96573000  0.27310000  1.0
  C  C374  1  0.44649000  0.97442000  0.23068000  1.0
  C  C375  1  0.30821000  0.96510000  0.30711000  1.0
  C  C376  1  0.89043000  0.08169000  0.67327000  1.0
  C  C377  1  0.55632000  0.01979000  0.26520000  1.0
  C  C378  1  0.43387000  0.02447000  0.23793000  1.0
  C  C379  1  0.98252000  0.06793000  0.34002000  1.0
  C  C380  1  0.93050000  0.06699000  0.66364000  1.0
  C  C381  1  0.63873000  0.03990000  0.28347000  1.0
  C  C382  1  0.49736000  0.04218000  0.74222000  1.0
  C  C383  1  0.45643000  0.04813000  0.75341000  1.0
  C  C384  1  0.60138000  0.00696000  0.27745000  1.0
  C  C385  1  0.50363000  0.99859000  0.72645000  1.0
  C  C386  1  0.93527000  0.01767000  0.65659000  1.0
  C  C387  1  0.76682000  0.00825000  0.32129000  1.0
  C  C388  1  0.81239000  0.00048000  0.32925000  1.0
  C  C389  1  0.68893000  0.98379000  0.29706000  1.0
  C  C390  1  0.17122000  0.97213000  0.32162000  1.0
  C  C391  1  0.12706000  0.97345000  0.32899000  1.0
  N  N392  1  0.91951000  0.90436000  0.51541000  1.0
  N  N393  1  0.91513000  0.90452000  0.54131000  1.0
  N  N394  1  0.93924000  0.89947000  0.43423000  1.0
  N  N395  1  0.93664000  0.89656000  0.46012000  1.0
  N  N396  1  0.62474000  0.84737000  0.68776000  1.0
  N  N397  1  0.26024000  0.86772000  0.71303000  1.0
  N  N398  1  0.92921000  0.63421000  0.68352000  1.0
  N  N399  1  0.02195000  0.61905000  0.28000000  1.0
  N  N400  1  0.42428000  0.77716000  0.17780000  1.0
  N  N401  1  0.48025000  0.77935000  0.81638000  1.0
  N  N402  1  0.98633000  0.94599000  0.55206000  1.0
  N  N403  1  0.99043000  0.94638000  0.52616000  1.0
  N  N404  1  0.98792000  0.96143000  0.47093000  1.0
  N  N405  1  0.99000000  0.96472000  0.44508000  1.0
  N  N406  1  0.39334000  0.46242000  0.94468000  1.0
  N  N407  1  0.39263000  0.46151000  0.91833000  1.0
  N  N408  1  0.44038000  0.40115000  0.91828000  1.0
  N  N409  1  0.44166000  0.40251000  0.94475000  1.0
  N  N410  1  0.45705000  0.42205000  0.00253000  1.0
  N  N411  1  0.46033000  0.42753000  0.02913000  1.0
  N  N412  1  0.39007000  0.46046000  0.02674000  1.0
  N  N413  1  0.38710000  0.45558000  0.00017000  1.0
  N  N414  1  0.89532000  0.22987000  0.69882000  1.0
  N  N415  1  0.05715000  0.25799000  0.30203000  1.0
  N  N416  1  0.08253000  0.42740000  0.13189000  1.0
  N  N417  1  0.74846000  0.47461000  0.22215000  1.0
  N  N418  1  0.48647000  0.21712000  0.21099000  1.0
  N  N419  1  0.67711000  0.51158000  0.75075000  1.0
  N  N420  1  0.11531000  0.43873000  0.75682000  1.0
  N  N421  1  0.44999000  0.08852000  0.76721000  1.0
  N  N422  1  0.26464000  0.95898000  0.31318000  1.0
  N  N423  1  0.68071000  0.02766000  0.29289000  1.0
  O  O424  1  0.46532000  0.81384000  0.67252000  1.0
  O  O425  1  0.49842000  0.81329000  0.71500000  1.0
  O  O426  1  0.41442000  0.91609000  0.75363000  1.0
  O  O427  1  0.38243000  0.84716000  0.75950000  1.0
  O  O428  1  0.56441000  0.89284000  0.79991000  1.0
  O  O429  1  0.56019000  0.86460000  0.75649000  1.0
  O  O430  1  0.95460000  0.49449000  0.70765000  1.0
  O  O431  1  0.02453000  0.52059000  0.70196000  1.0
  O  O432  1  0.37560000  0.94972000  0.24821000  1.0
  O  O433  1  0.43262000  0.92496000  0.14762000  1.0
  O  O434  1  0.45406000  0.92137000  0.19151000  1.0
  O  O435  1  0.05011000  0.50030000  0.23384000  1.0
  O  O436  1  0.82320000  0.91200000  0.61790000  1.0
  O  O437  1  0.84571000  0.91499000  0.66124000  1.0
  O  O438  1  0.97999000  0.93324000  0.60632000  1.0
  O  O439  1  0.90201000  0.91998000  0.59567000  1.0
  O  O440  1  0.90857000  0.85797000  0.64225000  1.0
  O  O441  1  0.96937000  0.88615000  0.67143000  1.0
  O  O442  1  0.04637000  0.90461000  0.64059000  1.0
  O  O443  1  0.95696000  0.90312000  0.37987000  1.0
  O  O444  1  0.01302000  0.90984000  0.31774000  1.0
  O  O445  1  0.89438000  0.91114000  0.32430000  1.0
  O  O446  1  0.98297000  0.83331000  0.34722000  1.0
  O  O447  1  0.92788000  0.83828000  0.31484000  1.0
  O  O448  1  0.47024000  0.54229000  0.12675000  1.0
  O  O449  1  0.42387000  0.54650000  0.84520000  1.0
  O  O450  1  0.40927000  0.52856000  0.80167000  1.0
  O  O451  1  0.79774000  0.53673000  0.71657000  1.0
  O  O452  1  0.97001000  0.35613000  0.73515000  1.0
  O  O453  1  0.39926000  0.53149000  0.13915000  1.0
  O  O454  1  0.83695000  0.35287000  0.66034000  1.0
  O  O455  1  0.86493000  0.37373000  0.70342000  1.0
  O  O456  1  0.81321000  0.46296000  0.71164000  1.0
  O  O457  1  0.97026000  0.43225000  0.74387000  1.0
  O  O458  1  0.95283000  0.36472000  0.13959000  1.0
  O  O459  1  0.97823000  0.33950000  0.17892000  1.0
  O  O460  1  0.90271000  0.42828000  0.22621000  1.0
  O  O461  1  0.87137000  0.44247000  0.26414000  1.0
  O  O462  1  0.09964000  0.34609000  0.24833000  1.0
  O  O463  1  0.02833000  0.34628000  0.22688000  1.0
  O  O464  1  0.97717000  0.48844000  0.21488000  1.0
  O  O465  1  0.31951000  0.46057000  0.10555000  1.0
  O  O466  1  0.33930000  0.45982000  0.14878000  1.0
  O  O467  1  0.47184000  0.45626000  0.08470000  1.0
  O  O468  1  0.39362000  0.45978000  0.08263000  1.0
  O  O469  1  0.40055000  0.40181000  0.13432000  1.0
  O  O470  1  0.47735000  0.41645000  0.14287000  1.0
  O  O471  1  0.55189000  0.47308000  0.11725000  1.0
  O  O472  1  0.53169000  0.49840000  0.15645000  1.0
  O  O473  1  0.42388000  0.39478000  0.86068000  1.0
  O  O474  1  0.40987000  0.47053000  0.86575000  1.0
  O  O475  1  0.48151000  0.47212000  0.81874000  1.0
  O  O476  1  0.46340000  0.40509000  0.79330000  1.0
  O  O477  1  0.35074000  0.46055000  0.81008000  1.0
  O  O478  1  0.35534000  0.38380000  0.80132000  1.0
  O  O479  1  0.46880000  0.33522000  0.82313000  1.0
  O  O480  1  0.39646000  0.31587000  0.80830000  1.0
  O  O481  1  0.46808000  0.96609000  0.72145000  1.0
  O  O482  1  0.04665000  0.96506000  0.66973000  1.0
  O  O483  1  0.47403000  0.11074000  0.25772000  1.0
  O  O484  1  0.55289000  0.05819000  0.25833000  1.0
  O  O485  1  0.45398000  0.05650000  0.22347000  1.0
  O  O486  1  0.98941000  0.05970000  0.36519000  1.0
  O  O487  1  0.97206000  0.03155000  0.32275000  1.0
  O  O488  1  0.38678000  0.99760000  0.28663000  1.0
  O  O489  1  0.97594000  0.00206000  0.65793000  1.0
  O  O490  1  0.97765000  0.97993000  0.39112000  1.0
  O  O491  1  0.03829000  0.97359000  0.34498000  1.0
  O  O492  1  0.51915000  0.98907000  0.26055000  1.0
  O  O493  1  0.54011000  0.99221000  0.71783000  1.0
  O  O494  1  0.89860000  0.99019000  0.64804000  1.0
  O  O495  1  0.90521000  0.98430000  0.34373000  1.0
