# generated using pymatgen
data_Ni2H47C49N4
_symmetry_space_group_name_H-M   'P 1'
_cell_length_a   31.80140000
_cell_length_b   31.96860000
_cell_length_c   46.74430000
_cell_angle_alpha   90.82100000
_cell_angle_beta   91.18100000
_cell_angle_gamma   90.27700000
_symmetry_Int_Tables_number   1
_chemical_formula_structural   Ni2H47C49N4
_chemical_formula_sum   'Ni8 H188 C196 N16'
_cell_volume   47506.81848769
_cell_formula_units_Z   4
loop_
 _symmetry_equiv_pos_site_id
 _symmetry_equiv_pos_as_xyz
  1  'x, y, z'
loop_
 _atom_site_type_symbol
 _atom_site_label
 _atom_site_symmetry_multiplicity
 _atom_site_fract_x
 _atom_site_fract_y
 _atom_site_fract_z
 _atom_site_occupancy
  Ni  Ni0  1  0.68985000  0.88992000  0.59142000  1.0
  Ni  Ni1  1  0.99583000  0.73564000  0.29513000  1.0
  Ni  Ni2  1  0.18146000  0.98963000  0.62946000  1.0
  Ni  Ni3  1  0.91999000  0.19273000  0.30890000  1.0
  Ni  Ni4  1  0.22617000  0.49898000  0.12271000  1.0
  Ni  Ni5  1  0.42475000  0.23340000  0.80694000  1.0
  Ni  Ni6  1  0.68119000  0.43006000  0.13615000  1.0
  Ni  Ni7  1  0.52175000  0.73045000  0.83509000  1.0
  H  H8  1  0.61659000  0.87055000  0.75770000  1.0
  H  H9  1  0.58409000  0.90497000  0.77801000  1.0
  H  H10  1  0.52794000  0.93946000  0.75351000  1.0
  H  H11  1  0.58183000  0.82995000  0.71488000  1.0
  H  H12  1  0.49072000  0.90186000  0.66782000  1.0
  H  H13  1  0.54642000  0.80120000  0.67027000  1.0
  H  H14  1  0.51247000  0.83336000  0.64958000  1.0
  H  H15  1  0.49744000  0.99036000  0.70852000  1.0
  H  H16  1  0.45877000  0.96136000  0.68771000  1.0
  H  H17  1  0.12225000  0.53810000  0.24042000  1.0
  H  H18  1  0.10989000  0.48353000  0.23693000  1.0
  H  H19  1  0.04188000  0.46224000  0.21802000  1.0
  H  H20  1  0.08192000  0.58993000  0.20873000  1.0
  H  H21  1  0.95347000  0.55506000  0.18964000  1.0
  H  H22  1  0.03266000  0.63282000  0.17505000  1.0
  H  H23  1  0.97773000  0.62322000  0.17659000  1.0
  H  H24  1  0.93207000  0.48351000  0.18926000  1.0
  H  H25  1  0.97266000  0.44431000  0.18960000  1.0
  H  H26  1  0.29147000  0.97824000  0.74940000  1.0
  H  H27  1  0.28082000  0.03308000  0.75106000  1.0
  H  H28  1  0.36169000  0.95676000  0.74020000  1.0
  H  H29  1  0.32454000  0.08159000  0.71820000  1.0
  H  H30  1  0.45485000  0.04743000  0.71651000  1.0
  H  H31  1  0.43125000  0.11102000  0.69281000  1.0
  H  H32  1  0.37699000  0.12338000  0.69049000  1.0
  H  H33  1  0.46388000  0.97529000  0.75305000  1.0
  H  H34  1  0.43182000  0.93445000  0.73715000  1.0
  H  H35  1  0.78280000  0.38864000  0.25647000  1.0
  H  H36  1  0.79384000  0.44355000  0.25549000  1.0
  H  H37  1  0.86294000  0.46621000  0.24275000  1.0
  H  H38  1  0.82490000  0.33947000  0.22329000  1.0
  H  H39  1  0.95413000  0.37648000  0.21451000  1.0
  H  H40  1  0.87585000  0.29816000  0.19201000  1.0
  H  H41  1  0.93042000  0.30990000  0.19463000  1.0
  H  H42  1  0.93543000  0.48576000  0.24349000  1.0
  H  H43  1  0.97398000  0.44457000  0.24275000  1.0
  H  H44  1  0.87698000  0.83826000  0.51379000  1.0
  H  H45  1  0.82737000  0.83315000  0.49399000  1.0
  H  H46  1  0.82984000  0.85181000  0.53014000  1.0
  H  H47  1  0.87915000  0.92037000  0.41511000  1.0
  H  H48  1  0.92124000  0.95462000  0.42746000  1.0
  H  H49  1  0.86945000  0.97318000  0.41756000  1.0
  H  H50  1  0.84325000  0.03299000  0.52270000  1.0
  H  H51  1  0.80605000  0.00049000  0.53830000  1.0
  H  H52  1  0.79342000  0.02244000  0.50420000  1.0
  H  H53  1  0.83328000  0.02178000  0.44706000  1.0
  H  H54  1  0.89076000  0.83556000  0.46784000  1.0
  H  H55  1  0.86272000  0.85646000  0.43945000  1.0
  H  H56  1  0.07221000  0.88927000  0.40196000  1.0
  H  H57  1  0.07723000  0.83768000  0.41742000  1.0
  H  H58  1  0.05766000  0.84449000  0.38190000  1.0
  H  H59  1  0.88655000  0.80478000  0.40651000  1.0
  H  H60  1  0.87490000  0.85667000  0.39329000  1.0
  H  H61  1  0.90622000  0.82282000  0.37339000  1.0
  H  H62  1  0.07724000  0.89492000  0.44945000  1.0
  H  H63  1  0.94018000  0.86755000  0.49919000  1.0
  H  H64  1  0.99353000  0.87703000  0.50170000  1.0
  H  H65  1  0.95902000  0.92007000  0.49341000  1.0
  H  H66  1  0.03927000  0.06858000  0.40868000  1.0
  H  H67  1  0.02744000  0.11683000  0.42777000  1.0
  H  H68  1  0.00998000  0.10786000  0.39185000  1.0
  H  H69  1  0.96496000  0.04146000  0.50860000  1.0
  H  H70  1  0.94758000  0.99036000  0.49699000  1.0
  H  H71  1  0.91120000  0.03078000  0.50642000  1.0
  H  H72  1  0.84279000  0.03534000  0.40071000  1.0
  H  H73  1  0.85814000  0.08388000  0.38700000  1.0
  H  H74  1  0.83550000  0.08328000  0.42130000  1.0
  H  H75  1  0.85210000  0.04779000  0.47748000  1.0
  H  H76  1  0.04772000  0.05968000  0.45561000  1.0
  H  H77  1  0.01793000  0.07744000  0.48380000  1.0
  H  H78  1  0.05956000  0.87177000  0.52318000  1.0
  H  H79  1  0.10918000  0.88302000  0.50713000  1.0
  H  H80  1  0.09865000  0.90021000  0.54270000  1.0
  H  H81  1  0.07663000  0.07410000  0.51533000  1.0
  H  H82  1  0.02503000  0.06639000  0.53039000  1.0
  H  H83  1  0.07019000  0.04992000  0.54902000  1.0
  H  H84  1  0.03488000  0.00175000  0.42456000  1.0
  H  H85  1  0.04447000  0.94885000  0.42250000  1.0
  H  H86  1  0.99180000  0.96603000  0.43012000  1.0
  H  H87  1  0.05512000  0.86448000  0.47564000  1.0
  H  H88  1  0.58041000  0.59972000  0.93855000  1.0
  H  H89  1  0.56294000  0.60137000  0.90230000  1.0
  H  H90  1  0.57688000  0.55253000  0.91642000  1.0
  H  H91  1  0.49306000  0.54569000  0.01463000  1.0
  H  H92  1  0.45939000  0.50326000  0.00237000  1.0
  H  H93  1  0.43987000  0.55464000  0.01161000  1.0
  H  H94  1  0.37983000  0.57509000  0.90553000  1.0
  H  H95  1  0.41181000  0.61123000  0.88857000  1.0
  H  H96  1  0.38907000  0.62623000  0.92196000  1.0
  H  H97  1  0.39049000  0.58848000  0.98100000  1.0
  H  H98  1  0.57909000  0.53618000  0.96266000  1.0
  H  H99  1  0.55773000  0.56362000  0.99096000  1.0
  H  H100  1  0.53330000  0.35350000  0.02823000  1.0
  H  H101  1  0.58380000  0.35045000  0.01085000  1.0
  H  H102  1  0.57994000  0.36868000  0.04663000  1.0
  H  H103  1  0.55601000  0.55126000  0.03677000  1.0
  H  H104  1  0.58842000  0.52035000  0.05813000  1.0
  H  H105  1  0.60932000  0.54049000  0.02582000  1.0
  H  H106  1  0.52550000  0.34935000  0.98033000  1.0
  H  H107  1  0.54848000  0.48709000  0.93103000  1.0
  H  H108  1  0.53952000  0.43391000  0.92831000  1.0
  H  H109  1  0.49599000  0.46751000  0.93679000  1.0
  H  H110  1  0.35227000  0.38333000  0.02318000  1.0
  H  H111  1  0.30195000  0.39358000  0.00572000  1.0
  H  H112  1  0.31393000  0.41184000  0.04115000  1.0
  H  H113  1  0.37329000  0.45544000  0.92190000  1.0
  H  H114  1  0.42464000  0.47366000  0.93302000  1.0
  H  H115  1  0.38345000  0.50906000  0.92307000  1.0
  H  H116  1  0.32881000  0.58560000  0.00545000  1.0
  H  H117  1  0.37576000  0.58021000  0.02789000  1.0
  H  H118  1  0.32600000  0.56435000  0.04000000  1.0
  H  H119  1  0.36487000  0.56845000  0.95072000  1.0
  H  H120  1  0.35877000  0.37412000  0.97652000  1.0
  H  H121  1  0.33933000  0.40268000  0.94808000  1.0
  H  H122  1  0.53667000  0.31836000  0.92190000  1.0
  H  H123  1  0.51772000  0.33028000  0.88671000  1.0
  H  H124  1  0.54574000  0.36889000  0.90672000  1.0
  H  H125  1  0.34871000  0.39373000  0.90142000  1.0
  H  H126  1  0.36572000  0.34818000  0.88390000  1.0
  H  H127  1  0.34307000  0.34312000  0.91815000  1.0
  H  H128  1  0.41798000  0.38912000  0.00660000  1.0
  H  H129  1  0.47135000  0.38037000  0.00806000  1.0
  H  H130  1  0.45290000  0.43247000  0.00025000  1.0
  H  H131  1  0.55470000  0.37255000  0.95388000  1.0
  H  H132  1  0.83726000  0.92520000  0.56952000  1.0
  H  H133  1  0.74958000  0.91834000  0.49787000  1.0
  H  H134  1  0.69292000  0.90193000  0.53138000  1.0
  H  H135  1  0.77851000  0.90846000  0.60173000  1.0
  H  H136  1  0.54229000  0.89223000  0.62067000  1.0
  H  H137  1  0.60332000  0.91452000  0.59257000  1.0
  H  H138  1  0.68344000  0.83321000  0.63854000  1.0
  H  H139  1  0.62412000  0.80913000  0.66764000  1.0
  H  H140  1  0.98938000  0.76192000  0.39871000  1.0
  H  H141  1  0.97978000  0.87104000  0.34571000  1.0
  H  H142  1  0.98705000  0.82500000  0.30289000  1.0
  H  H143  1  0.99644000  0.71826000  0.35495000  1.0
  H  H144  1  0.06886000  0.67278000  0.21342000  1.0
  H  H145  1  0.06268000  0.71852000  0.25623000  1.0
  H  H146  1  0.93685000  0.67965000  0.26698000  1.0
  H  H147  1  0.94030000  0.63300000  0.22438000  1.0
  H  H148  1  0.04623000  0.96511000  0.57812000  1.0
  H  H149  1  0.15334000  0.99029000  0.52571000  1.0
  H  H150  1  0.19772000  0.99631000  0.56971000  1.0
  H  H151  1  0.09292000  0.97166000  0.62117000  1.0
  H  H152  1  0.24145000  0.06652000  0.71265000  1.0
  H  H153  1  0.19666000  0.05766000  0.66913000  1.0
  H  H154  1  0.23922000  0.93366000  0.65749000  1.0
  H  H155  1  0.28503000  0.93983000  0.70083000  1.0
  H  H156  1  0.94113000  0.05589000  0.35435000  1.0
  H  H157  1  0.92340000  0.16125000  0.41152000  1.0
  H  H158  1  0.91707000  0.20707000  0.36942000  1.0
  H  H159  1  0.93441000  0.10397000  0.31332000  1.0
  H  H160  1  0.97059000  0.29793000  0.24163000  1.0
  H  H161  1  0.97703000  0.25010000  0.28265000  1.0
  H  H162  1  0.85080000  0.21057000  0.27066000  1.0
  H  H163  1  0.84163000  0.25749000  0.22943000  1.0
  H  H164  1  0.25357000  0.49144000  0.01971000  1.0
  H  H165  1  0.36310000  0.48713000  0.07563000  1.0
  H  H166  1  0.31616000  0.49250000  0.11726000  1.0
  H  H167  1  0.20897000  0.49671000  0.06237000  1.0
  H  H168  1  0.16423000  0.57288000  0.20454000  1.0
  H  H169  1  0.21065000  0.56552000  0.16300000  1.0
  H  H170  1  0.16796000  0.44165000  0.14770000  1.0
  H  H171  1  0.12056000  0.44630000  0.18896000  1.0
  H  H172  1  0.43248000  0.26919000  0.90943000  1.0
  H  H173  1  0.44598000  0.37271000  0.85203000  1.0
  H  H174  1  0.43834000  0.32279000  0.81106000  1.0
  H  H175  1  0.42515000  0.22155000  0.86744000  1.0
  H  H176  1  0.34324000  0.16388000  0.72917000  1.0
  H  H177  1  0.35396000  0.21275000  0.77020000  1.0
  H  H178  1  0.48078000  0.17557000  0.77964000  1.0
  H  H179  1  0.47283000  0.12590000  0.73877000  1.0
  H  H180  1  0.65660000  0.44454000  0.03271000  1.0
  H  H181  1  0.54529000  0.44106000  0.08392000  1.0
  H  H182  1  0.59108000  0.43359000  0.12717000  1.0
  H  H183  1  0.69998000  0.43703000  0.07687000  1.0
  H  H184  1  0.74199000  0.35460000  0.21801000  1.0
  H  H185  1  0.69647000  0.36257000  0.17494000  1.0
  H  H186  1  0.73842000  0.48708000  0.16507000  1.0
  H  H187  1  0.78491000  0.48182000  0.20798000  1.0
  H  H188  1  0.48637000  0.67496000  0.92877000  1.0
  H  H189  1  0.49339000  0.58344000  0.86029000  1.0
  H  H190  1  0.50929000  0.64094000  0.82693000  1.0
  H  H191  1  0.50217000  0.73032000  0.89417000  1.0
  H  H192  1  0.51766000  0.87517000  0.80083000  1.0
  H  H193  1  0.49308000  0.81498000  0.82883000  1.0
  H  H194  1  0.58489000  0.73679000  0.79218000  1.0
  H  H195  1  0.61146000  0.79521000  0.76342000  1.0
  C  C196  1  0.47686000  0.96218000  0.70835000  1.0
  C  C197  1  0.58356000  0.87664000  0.76390000  1.0
  C  C198  1  0.55703000  0.88348000  0.73732000  1.0
  C  C199  1  0.52969000  0.91775000  0.73558000  1.0
  C  C200  1  0.50508000  0.92434000  0.71073000  1.0
  C  C201  1  0.50875000  0.89657000  0.68735000  1.0
  C  C202  1  0.53613000  0.86232000  0.68881000  1.0
  C  C203  1  0.56024000  0.85604000  0.71381000  1.0
  C  C204  1  0.54159000  0.83394000  0.66320000  1.0
  C  C205  1  0.95999000  0.47181000  0.20139000  1.0
  C  C206  1  0.11020000  0.51357000  0.22519000  1.0
  C  C207  1  0.06658000  0.52494000  0.21487000  1.0
  C  C208  1  0.03481000  0.49436000  0.21267000  1.0
  C  C209  1  0.99386000  0.50502000  0.20373000  1.0
  C  C210  1  0.98500000  0.54662000  0.19657000  1.0
  C  C211  1  0.01680000  0.57726000  0.19790000  1.0
  C  C212  1  0.05739000  0.56629000  0.20735000  1.0
  C  C213  1  0.00759000  0.62163000  0.18936000  1.0
  C  C214  1  0.44610000  0.96568000  0.73331000  1.0
  C  C215  1  0.29334000  0.00773000  0.73712000  1.0
  C  C216  1  0.33819000  0.01798000  0.72991000  1.0
  C  C217  1  0.36988000  0.98787000  0.73318000  1.0
  C  C218  1  0.41213000  0.99793000  0.72813000  1.0
  C  C219  1  0.42236000  0.03874000  0.71971000  1.0
  C  C220  1  0.39079000  0.06861000  0.71527000  1.0
  C  C221  1  0.34886000  0.05824000  0.72081000  1.0
  C  C222  1  0.40194000  0.11187000  0.70540000  1.0
  C  C223  1  0.94640000  0.45798000  0.23117000  1.0
  C  C224  1  0.79478000  0.41397000  0.24269000  1.0
  C  C225  1  0.83907000  0.40392000  0.23408000  1.0
  C  C226  1  0.87067000  0.43475000  0.23576000  1.0
  C  C227  1  0.91226000  0.42505000  0.22875000  1.0
  C  C228  1  0.92201000  0.38420000  0.21974000  1.0
  C  C229  1  0.89048000  0.35343000  0.21717000  1.0
  C  C230  1  0.84919000  0.36335000  0.22471000  1.0
  C  C231  1  0.90096000  0.30981000  0.20707000  1.0
  C  C232  1  0.83180000  0.93096000  0.51080000  1.0
  C  C233  1  0.85170000  0.89660000  0.49746000  1.0
  C  C234  1  0.87380000  0.90254000  0.47158000  1.0
  C  C235  1  0.87413000  0.94312000  0.45920000  1.0
  C  C236  1  0.86038000  0.97868000  0.47527000  1.0
  C  C237  1  0.83871000  0.97214000  0.50125000  1.0
  C  C238  1  0.84599000  0.85283000  0.50943000  1.0
  C  C239  1  0.88711000  0.94816000  0.42840000  1.0
  C  C240  1  0.81921000  0.00876000  0.51738000  1.0
  C  C241  1  0.88878000  0.86389000  0.45467000  1.0
  C  C242  1  0.96884000  0.87774000  0.45765000  1.0
  C  C243  1  0.00908000  0.87946000  0.44470000  1.0
  C  C244  1  0.01371000  0.86214000  0.41665000  1.0
  C  C245  1  0.97817000  0.84579000  0.40151000  1.0
  C  C246  1  0.93739000  0.84969000  0.41277000  1.0
  C  C247  1  0.93235000  0.86609000  0.44101000  1.0
  C  C248  1  0.05726000  0.85806000  0.40379000  1.0
  C  C249  1  0.89953000  0.83252000  0.39564000  1.0
  C  C250  1  0.96514000  0.88646000  0.48951000  1.0
  C  C251  1  0.89933000  0.05954000  0.42231000  1.0
  C  C252  1  0.93619000  0.07742000  0.41108000  1.0
  C  C253  1  0.97571000  0.07234000  0.42507000  1.0
  C  C254  1  0.97825000  0.05128000  0.45175000  1.0
  C  C255  1  0.90142000  0.03807000  0.44883000  1.0
  C  C256  1  0.01488000  0.09246000  0.41268000  1.0
  C  C257  1  0.94104000  0.02424000  0.49565000  1.0
  C  C258  1  0.03526000  0.97160000  0.46624000  1.0
  C  C259  1  0.94038000  0.03723000  0.46454000  1.0
  C  C260  1  0.06966000  0.97406000  0.52241000  1.0
  C  C261  1  0.05218000  0.01083000  0.51067000  1.0
  C  C262  1  0.03385000  0.00967000  0.48256000  1.0
  C  C263  1  0.08438000  0.89592000  0.52107000  1.0
  C  C264  1  0.05635000  0.05225000  0.52720000  1.0
  C  C265  1  0.02566000  0.97199000  0.43432000  1.0
  C  C266  1  0.85699000  0.06592000  0.40701000  1.0
  C  C267  1  0.04749000  0.93349000  0.47957000  1.0
  C  C268  1  0.02044000  0.05095000  0.46853000  1.0
  C  C269  1  0.06588000  0.93521000  0.50765000  1.0
  C  C270  1  0.86038000  0.02264000  0.46221000  1.0
  C  C271  1  0.04869000  0.89208000  0.46234000  1.0
  C  C272  1  0.48210000  0.59174000  0.91834000  1.0
  C  C273  1  0.51729000  0.57438000  0.93277000  1.0
  C  C274  1  0.51158000  0.55185000  0.95851000  1.0
  C  C275  1  0.47056000  0.54998000  0.97030000  1.0
  C  C276  1  0.43460000  0.56200000  0.95359000  1.0
  C  C277  1  0.44081000  0.58290000  0.92724000  1.0
  C  C278  1  0.56147000  0.58256000  0.92192000  1.0
  C  C279  1  0.46540000  0.53728000  0.00117000  1.0
  C  C280  1  0.40357000  0.59990000  0.91003000  1.0
  C  C281  1  0.55063000  0.53767000  0.97577000  1.0
  C  C282  1  0.53908000  0.45777000  0.97247000  1.0
  C  C283  1  0.53915000  0.41742000  0.98517000  1.0
  C  C284  1  0.55732000  0.41283000  0.01310000  1.0
  C  C285  1  0.57162000  0.44857000  0.02871000  1.0
  C  C286  1  0.56555000  0.48920000  0.01779000  1.0
  C  C287  1  0.54935000  0.49414000  0.98937000  1.0
  C  C288  1  0.56400000  0.36933000  0.02540000  1.0
  C  C289  1  0.58072000  0.52709000  0.03548000  1.0
  C  C290  1  0.52990000  0.46182000  0.94063000  1.0
  C  C291  1  0.35425000  0.52272000  0.00675000  1.0
  C  C292  1  0.33864000  0.48578000  0.01914000  1.0
  C  C293  1  0.34535000  0.44618000  0.00613000  1.0
  C  C294  1  0.36556000  0.44351000  0.97920000  1.0
  C  C295  1  0.37584000  0.52041000  0.98034000  1.0
  C  C296  1  0.32740000  0.40695000  0.01974000  1.0
  C  C297  1  0.39054000  0.47982000  0.93435000  1.0
  C  C298  1  0.44678000  0.38888000  0.96453000  1.0
  C  C299  1  0.37797000  0.48116000  0.96550000  1.0
  C  C300  1  0.44318000  0.35322000  0.90897000  1.0
  C  C301  1  0.40609000  0.36942000  0.92104000  1.0
  C  C302  1  0.40782000  0.38859000  0.94877000  1.0
  C  C303  1  0.52239000  0.34329000  0.90861000  1.0
  C  C304  1  0.36392000  0.36316000  0.90531000  1.0
  C  C305  1  0.44735000  0.39867000  0.99638000  1.0
  C  C306  1  0.34574000  0.56518000  0.02082000  1.0
  C  C307  1  0.48496000  0.37807000  0.95072000  1.0
  C  C308  1  0.36649000  0.40115000  0.96312000  1.0
  C  C309  1  0.48275000  0.35951000  0.92279000  1.0
  C  C310  1  0.39030000  0.56117000  0.96626000  1.0
  C  C311  1  0.52719000  0.37798000  0.96746000  1.0
  C  C312  1  0.57837000  0.84830000  0.64599000  1.0
  C  C313  1  0.57294000  0.87882000  0.62499000  1.0
  C  C314  1  0.60740000  0.89163000  0.60921000  1.0
  C  C315  1  0.65236000  0.84600000  0.63499000  1.0
  C  C316  1  0.61876000  0.83229000  0.65129000  1.0
  C  C317  1  0.79767000  0.92299000  0.53125000  1.0
  C  C318  1  0.75662000  0.91665000  0.52060000  1.0
  C  C319  1  0.72462000  0.90739000  0.53946000  1.0
  C  C320  1  0.77266000  0.91106000  0.57895000  1.0
  C  C321  1  0.80575000  0.92049000  0.56079000  1.0
  C  C322  1  0.00473000  0.64977000  0.21535000  1.0
  C  C323  1  0.03949000  0.67386000  0.22473000  1.0
  C  C324  1  0.03610000  0.69971000  0.24891000  1.0
  C  C325  1  0.96549000  0.67790000  0.25494000  1.0
  C  C326  1  0.96750000  0.65161000  0.23088000  1.0
  C  C327  1  0.98411000  0.81977000  0.37539000  1.0
  C  C328  1  0.98367000  0.83763000  0.34818000  1.0
  C  C329  1  0.98773000  0.81171000  0.32405000  1.0
  C  C330  1  0.99300000  0.75179000  0.35327000  1.0
  C  C331  1  0.98904000  0.77645000  0.37791000  1.0
  C  C332  1  0.26633000  0.00354000  0.71034000  1.0
  C  C333  1  0.24149000  0.03703000  0.70096000  1.0
  C  C334  1  0.21616000  0.03211000  0.67637000  1.0
  C  C335  1  0.24004000  0.96253000  0.66984000  1.0
  C  C336  1  0.26587000  0.96608000  0.69432000  1.0
  C  C337  1  0.09645000  0.97722000  0.54871000  1.0
  C  C338  1  0.13945000  0.98600000  0.54644000  1.0
  C  C339  1  0.16451000  0.98939000  0.57122000  1.0
  C  C340  1  0.10568000  0.97556000  0.60010000  1.0
  C  C341  1  0.07939000  0.97188000  0.57583000  1.0
  C  C342  1  0.90572000  0.28089000  0.23207000  1.0
  C  C343  1  0.94393000  0.27892000  0.24751000  1.0
  C  C344  1  0.94763000  0.25197000  0.27069000  1.0
  C  C345  1  0.87679000  0.22979000  0.26397000  1.0
  C  C346  1  0.87171000  0.25630000  0.24067000  1.0
  C  C347  1  0.93274000  0.10513000  0.38598000  1.0
  C  C348  1  0.92599000  0.14804000  0.39016000  1.0
  C  C349  1  0.92242000  0.17391000  0.36645000  1.0
  C  C350  1  0.93215000  0.11603000  0.33496000  1.0
  C  C351  1  0.93592000  0.08896000  0.35810000  1.0
  C  C352  1  0.13924000  0.50981000  0.20024000  1.0
  C  C353  1  0.16466000  0.54367000  0.19252000  1.0
  C  C354  1  0.19088000  0.53962000  0.16905000  1.0
  C  C355  1  0.16692000  0.47010000  0.16047000  1.0
  C  C356  1  0.14023000  0.47278000  0.18379000  1.0
  C  C357  1  0.31168000  0.48890000  0.04458000  1.0
  C  C358  1  0.32937000  0.48919000  0.07229000  1.0
  C  C359  1  0.30295000  0.49221000  0.09575000  1.0
  C  C360  1  0.24277000  0.49457000  0.06494000  1.0
  C  C361  1  0.26795000  0.49160000  0.04092000  1.0
  C  C362  1  0.40750000  0.14156000  0.73051000  1.0
  C  C363  1  0.37375000  0.16597000  0.73983000  1.0
  C  C364  1  0.37972000  0.19359000  0.76299000  1.0
  C  C365  1  0.45090000  0.17274000  0.76829000  1.0
  C  C366  1  0.44633000  0.14472000  0.74520000  1.0
  C  C367  1  0.43980000  0.32453000  0.88379000  1.0
  C  C368  1  0.44160000  0.33966000  0.85584000  1.0
  C  C369  1  0.43729000  0.31154000  0.83275000  1.0
  C  C370  1  0.42988000  0.25471000  0.86439000  1.0
  C  C371  1  0.43403000  0.28162000  0.88804000  1.0
  C  C372  1  0.76656000  0.41793000  0.21658000  1.0
  C  C373  1  0.74162000  0.38406000  0.20686000  1.0
  C  C374  1  0.71589000  0.38847000  0.18253000  1.0
  C  C375  1  0.73943000  0.45834000  0.17700000  1.0
  C  C376  1  0.76563000  0.45531000  0.20123000  1.0
  C  C377  1  0.59768000  0.44330000  0.05509000  1.0
  C  C378  1  0.57914000  0.44012000  0.08193000  1.0
  C  C379  1  0.60493000  0.43593000  0.10631000  1.0
  C  C380  1  0.66606000  0.43786000  0.07808000  1.0
  C  C381  1  0.64156000  0.44208000  0.05321000  1.0
  C  C382  1  0.56701000  0.84000000  0.78030000  1.0
  C  C383  1  0.53279000  0.84506000  0.79848000  1.0
  C  C384  1  0.51871000  0.81107000  0.81419000  1.0
  C  C385  1  0.57023000  0.76719000  0.79362000  1.0
  C  C386  1  0.58532000  0.80032000  0.77752000  1.0
  C  C387  1  0.48878000  0.62504000  0.89706000  1.0
  C  C388  1  0.49473000  0.61551000  0.86805000  1.0
  C  C389  1  0.50367000  0.64791000  0.84924000  1.0
  C  C390  1  0.49968000  0.69807000  0.88698000  1.0
  C  C391  1  0.49081000  0.66680000  0.90646000  1.0
  N  N392  1  0.73315000  0.90454000  0.56796000  1.0
  N  N393  1  0.64602000  0.87492000  0.61432000  1.0
  N  N394  1  0.99208000  0.76966000  0.32706000  1.0
  N  N395  1  0.99945000  0.70135000  0.26333000  1.0
  N  N396  1  0.14734000  0.98421000  0.59733000  1.0
  N  N397  1  0.21571000  0.99523000  0.66153000  1.0
  N  N398  1  0.92549000  0.15758000  0.33957000  1.0
  N  N399  1  0.91435000  0.22802000  0.27831000  1.0
  N  N400  1  0.26056000  0.49482000  0.09164000  1.0
  N  N401  1  0.19159000  0.50322000  0.15368000  1.0
  N  N402  1  0.43145000  0.27002000  0.83746000  1.0
  N  N403  1  0.41788000  0.19659000  0.77655000  1.0
  N  N404  1  0.64750000  0.43497000  0.10391000  1.0
  N  N405  1  0.71518000  0.42522000  0.16826000  1.0
  N  N406  1  0.50629000  0.68814000  0.85908000  1.0
  N  N407  1  0.53779000  0.77326000  0.81169000  1.0
