# generated using pymatgen
data_CuH31C51N7O6
_symmetry_space_group_name_H-M   'P 1'
_cell_length_a   21.28560000
_cell_length_b   28.05400000
_cell_length_c   41.99220000
_cell_angle_alpha   88.15500000
_cell_angle_beta   88.22300000
_cell_angle_gamma   84.78300000
_symmetry_Int_Tables_number   1
_chemical_formula_structural   CuH31C51N7O6
_chemical_formula_sum   'Cu4 H124 C204 N28 O24'
_cell_volume   24948.72624329
_cell_formula_units_Z   4
loop_
 _symmetry_equiv_pos_site_id
 _symmetry_equiv_pos_as_xyz
  1  'x, y, z'
loop_
 _atom_site_type_symbol
 _atom_site_label
 _atom_site_symmetry_multiplicity
 _atom_site_fract_x
 _atom_site_fract_y
 _atom_site_fract_z
 _atom_site_occupancy
  C  C0  1  0.14896000  0.96602000  0.96844000  1.0
  C  C1  1  0.96006000  0.92100000  0.95692000  1.0
  C  C2  1  0.06630000  0.03293000  0.90466000  1.0
  C  C3  1  0.98028000  0.10793000  0.96063000  1.0
  C  C4  1  0.17658000  0.14847000  0.97750000  1.0
  C  C5  1  0.06086000  0.04280000  0.02576000  1.0
  C  C6  1  0.65364000  0.45344000  0.46409000  1.0
  C  C7  1  0.46804000  0.39733000  0.45149000  1.0
  C  C8  1  0.56144000  0.52032000  0.40404000  1.0
  C  C9  1  0.47006000  0.58494000  0.46404000  1.0
  C  C10  1  0.66208000  0.63725000  0.48037000  1.0
  C  C11  1  0.55992000  0.51811000  0.52548000  1.0
  C  C12  1  0.04110000  0.00612000  0.61250000  1.0
  C  C13  1  0.02288000  0.04933000  0.56415000  1.0
  C  C14  1  0.05148000  0.01318000  0.51514000  1.0
  C  C15  1  0.06884000  0.96979000  0.56367000  1.0
  C  C16  1  0.09972000  0.93395000  0.51503000  1.0
  C  C17  1  0.00338000  0.09242000  0.51588000  1.0
  C  C18  1  0.04252000  0.03112000  0.32091000  1.0
  C  C19  1  0.06482000  0.06972000  0.36773000  1.0
  C  C20  1  0.04978000  0.03169000  0.41808000  1.0
  C  C21  1  0.02748000  0.99321000  0.37106000  1.0
  C  C22  1  0.00948000  0.95585000  0.42107000  1.0
  C  C23  1  0.08970000  0.10762000  0.41436000  1.0
  C  C24  1  0.55532000  0.52154000  0.11046000  1.0
  C  C25  1  0.54232000  0.57134000  0.06449000  1.0
  C  C26  1  0.57740000  0.54277000  0.01412000  1.0
  C  C27  1  0.58904000  0.49248000  0.06021000  1.0
  C  C28  1  0.62532000  0.46378000  0.01027000  1.0
  C  C29  1  0.52798000  0.62130000  0.01864000  1.0
  C  C30  1  0.58102000  0.53750000  0.81926000  1.0
  C  C31  1  0.59984000  0.57220000  0.86800000  1.0
  C  C32  1  0.57934000  0.53102000  0.91666000  1.0
  C  C33  1  0.56032000  0.49656000  0.86774000  1.0
  C  C34  1  0.53710000  0.45605000  0.91607000  1.0
  C  C35  1  0.62092000  0.60624000  0.91663000  1.0
  C  C36  1  0.27204000  0.17289000  0.94723000  1.0
  C  C37  1  0.32308000  0.20064000  0.94313000  1.0
  C  C38  1  0.33438000  0.23478000  0.96550000  1.0
  C  C39  1  0.29446000  0.23944000  0.99277000  1.0
  C  C40  1  0.24348000  0.21139000  0.99700000  1.0
  C  C41  1  0.23096000  0.17829000  0.97397000  1.0
  C  C42  1  0.38768000  0.26487000  0.95892000  1.0
  C  C43  1  0.39094000  0.30877000  0.97073000  1.0
  C  C44  1  0.43720000  0.34243000  0.95859000  1.0
  C  C45  1  0.44760000  0.38240000  0.97651000  1.0
  C  C46  1  0.48352000  0.41830000  0.96368000  1.0
  C  C47  1  0.50898000  0.41513000  0.93245000  1.0
  C  C48  1  0.50144000  0.37396000  0.91529000  1.0
  C  C49  1  0.46586000  0.33829000  0.92802000  1.0
  C  C50  1  0.86710000  0.14006000  0.95657000  1.0
  C  C51  1  0.82000000  0.17807000  0.95579000  1.0
  C  C52  1  0.83526000  0.22568000  0.95639000  1.0
  C  C53  1  0.89936000  0.23442000  0.95719000  1.0
  C  C54  1  0.94666000  0.19626000  0.95792000  1.0
  C  C55  1  0.93096000  0.14863000  0.95809000  1.0
  C  C56  1  0.78270000  0.26423000  0.95965000  1.0
  C  C57  1  0.78884000  0.31149000  0.95549000  1.0
  C  C58  1  0.73878000  0.34905000  0.96567000  1.0
  C  C59  1  0.73930000  0.39612000  0.95307000  1.0
  C  C60  1  0.69898000  0.43350000  0.96589000  1.0
  C  C61  1  0.65838000  0.42442000  0.99195000  1.0
  C  C62  1  0.65536000  0.37703000  0.00328000  1.0
  C  C63  1  0.69506000  0.33987000  0.99045000  1.0
  C  C64  1  0.84546000  0.90770000  0.96320000  1.0
  C  C65  1  0.79664000  0.87737000  0.96432000  1.0
  C  C66  1  0.81006000  0.82744000  0.96355000  1.0
  C  C67  1  0.87358000  0.80843000  0.96207000  1.0
  C  C68  1  0.92224000  0.83874000  0.96064000  1.0
  C  C69  1  0.90868000  0.88871000  0.96054000  1.0
  C  C70  1  0.75732000  0.79664000  0.96061000  1.0
  C  C71  1  0.76174000  0.74949000  0.96852000  1.0
  C  C72  1  0.71566000  0.71633000  0.95858000  1.0
  C  C73  1  0.71424000  0.67124000  0.97410000  1.0
  C  C74  1  0.67984000  0.63607000  0.96178000  1.0
  C  C75  1  0.64712000  0.64522000  0.93339000  1.0
  C  C76  1  0.64558000  0.69114000  0.91893000  1.0
  C  C77  1  0.67938000  0.72628000  0.93131000  1.0
  C  C78  1  0.17858000  0.88071000  0.98439000  1.0
  C  C79  1  0.22316000  0.84157000  0.98848000  1.0
  C  C80  1  0.28626000  0.84445000  0.97862000  1.0
  C  C81  1  0.30410000  0.88738000  0.96429000  1.0
  C  C82  1  0.25950000  0.92706000  0.96071000  1.0
  C  C83  1  0.19638000  0.92417000  0.97099000  1.0
  C  C84  1  0.33282000  0.80371000  0.98677000  1.0
  C  C85  1  0.38590000  0.79108000  0.96959000  1.0
  C  C86  1  0.43018000  0.75049000  0.98077000  1.0
  C  C87  1  0.45464000  0.71488000  0.95985000  1.0
  C  C88  1  0.48926000  0.67336000  0.97165000  1.0
  C  C89  1  0.50054000  0.66741000  0.00446000  1.0
  C  C90  1  0.48016000  0.70509000  0.02471000  1.0
  C  C91  1  0.44536000  0.74595000  0.01305000  1.0
  C  C92  1  0.74114000  0.67609000  0.44539000  1.0
  C  C93  1  0.78590000  0.70906000  0.43981000  1.0
  C  C94  1  0.80178000  0.73904000  0.46395000  1.0
  C  C95  1  0.77184000  0.73468000  0.49418000  1.0
  C  C96  1  0.72674000  0.70164000  0.49975000  1.0
  C  C97  1  0.71038000  0.67224000  0.47529000  1.0
  C  C98  1  0.84890000  0.77425000  0.45585000  1.0
  C  C99  1  0.87004000  0.80561000  0.47594000  1.0
  C  C100  1  0.91424000  0.84160000  0.46497000  1.0
  C  C101  1  0.91182000  0.88608000  0.47977000  1.0
  C  C102  1  0.94666000  0.92275000  0.46704000  1.0
  C  C103  1  0.98432000  0.91538000  0.43927000  1.0
  C  C104  1  0.99098000  0.86967000  0.42624000  1.0
  C  C105  1  0.95694000  0.83307000  0.43909000  1.0
  C  C106  1  0.35420000  0.61100000  0.46575000  1.0
  C  C107  1  0.30408000  0.64678000  0.46679000  1.0
  C  C108  1  0.31522000  0.69538000  0.46542000  1.0
  C  C109  1  0.37800000  0.70746000  0.46273000  1.0
  C  C110  1  0.42824000  0.67162000  0.46183000  1.0
  C  C111  1  0.41692000  0.62298000  0.46367000  1.0
  C  C112  1  0.26086000  0.73193000  0.47029000  1.0
  C  C113  1  0.26170000  0.77878000  0.46212000  1.0
  C  C114  1  0.21184000  0.81598000  0.47293000  1.0
  C  C115  1  0.20452000  0.86063000  0.45658000  1.0
  C  C116  1  0.16458000  0.89852000  0.46900000  1.0
  C  C117  1  0.13228000  0.89259000  0.49835000  1.0
  C  C118  1  0.13710000  0.84727000  0.51377000  1.0
  C  C119  1  0.17638000  0.80951000  0.50132000  1.0
  C  C120  1  0.44074000  0.31198000  0.45178000  1.0
  C  C121  1  0.39686000  0.27781000  0.45451000  1.0
  C  C122  1  0.33266000  0.29149000  0.46065000  1.0
  C  C123  1  0.31368000  0.34027000  0.46539000  1.0
  C  C124  1  0.35782000  0.37451000  0.46291000  1.0
  C  C125  1  0.42160000  0.36085000  0.45538000  1.0
  C  C126  1  0.28742000  0.25383000  0.46127000  1.0
  C  C127  1  0.22614000  0.26260000  0.45392000  1.0
  C  C128  1  0.18524000  0.22371000  0.44783000  1.0
  C  C129  1  0.14036000  0.23157000  0.42404000  1.0
  C  C130  1  0.10692000  0.19424000  0.41439000  1.0
  C  C131  1  0.11646000  0.14840000  0.42885000  1.0
  C  C132  1  0.15744000  0.14134000  0.45450000  1.0
  C  C133  1  0.19202000  0.17861000  0.46378000  1.0
  C  C134  1  0.76902000  0.42605000  0.46669000  1.0
  C  C135  1  0.81828000  0.38954000  0.46820000  1.0
  C  C136  1  0.80622000  0.34129000  0.46654000  1.0
  C  C137  1  0.74358000  0.33034000  0.46311000  1.0
  C  C138  1  0.69428000  0.36683000  0.46180000  1.0
  C  C139  1  0.70634000  0.41507000  0.46393000  1.0
  C  C140  1  0.85882000  0.30340000  0.47186000  1.0
  C  C141  1  0.85804000  0.25773000  0.46283000  1.0
  C  C142  1  0.90436000  0.21807000  0.47388000  1.0
  C  C143  1  0.91154000  0.17509000  0.45724000  1.0
  C  C144  1  0.94710000  0.13468000  0.46979000  1.0
  C  C145  1  0.97540000  0.13642000  0.49945000  1.0
  C  C146  1  0.97078000  0.18001000  0.51528000  1.0
  C  C147  1  0.93572000  0.22029000  0.50273000  1.0
  C  C148  1  0.10008000  0.06269000  0.85063000  1.0
  C  C149  1  0.09690000  0.06304000  0.81749000  1.0
  C  C150  1  0.05936000  0.03225000  0.80261000  1.0
  C  C151  1  0.02430000  0.00132000  0.82157000  1.0
  C  C152  1  0.02728000  0.00108000  0.85473000  1.0
  C  C153  1  0.06508000  0.03185000  0.86959000  1.0
  C  C154  1  0.05596000  0.03473000  0.76742000  1.0
  C  C155  1  0.04212000  0.99772000  0.75013000  1.0
  C  C156  1  0.04006000  0.00055000  0.71491000  1.0
  C  C157  1  0.05518000  0.95885000  0.69773000  1.0
  C  C158  1  0.05518000  0.96053000  0.66448000  1.0
  C  C159  1  0.03914000  0.00395000  0.64775000  1.0
  C  C160  1  0.02212000  0.04545000  0.66506000  1.0
  C  C161  1  0.02250000  0.04379000  0.69828000  1.0
  C  C162  1  0.10540000  0.07027000  0.07570000  1.0
  C  C163  1  0.10464000  0.07332000  0.10881000  1.0
  C  C164  1  0.05826000  0.05262000  0.12772000  1.0
  C  C165  1  0.01146000  0.02974000  0.11270000  1.0
  C  C166  1  0.01238000  0.02650000  0.07958000  1.0
  C  C167  1  0.05952000  0.04652000  0.06076000  1.0
  C  C168  1  0.05976000  0.05646000  0.16287000  1.0
  C  C169  1  0.03228000  0.02642000  0.18349000  1.0
  C  C170  1  0.03534000  0.02907000  0.21865000  1.0
  C  C171  1  0.02378000  0.98835000  0.23742000  1.0
  C  C172  1  0.02610000  0.98901000  0.27055000  1.0
  C  C173  1  0.03986000  0.03061000  0.28575000  1.0
  C  C174  1  0.05066000  0.07164000  0.26702000  1.0
  C  C175  1  0.04808000  0.07102000  0.23385000  1.0
  C  C176  1  0.59280000  0.55681000  0.35158000  1.0
  C  C177  1  0.59080000  0.55975000  0.31842000  1.0
  C  C178  1  0.55742000  0.52802000  0.30185000  1.0
  C  C179  1  0.52526000  0.49348000  0.31916000  1.0
  C  C180  1  0.52700000  0.49068000  0.35238000  1.0
  C  C181  1  0.56074000  0.52236000  0.36891000  1.0
  C  C182  1  0.55520000  0.53339000  0.26671000  1.0
  C  C183  1  0.54570000  0.49729000  0.24760000  1.0
  C  C184  1  0.54530000  0.50359000  0.21247000  1.0
  C  C185  1  0.56634000  0.46480000  0.19349000  1.0
  C  C186  1  0.56894000  0.47033000  0.16031000  1.0
  C  C187  1  0.54974000  0.51473000  0.14549000  1.0
  C  C188  1  0.52646000  0.55305000  0.16455000  1.0
  C  C189  1  0.52412000  0.54754000  0.19766000  1.0
  C  C190  1  0.51524000  0.49269000  0.57847000  1.0
  C  C191  1  0.51458000  0.49250000  0.61172000  1.0
  C  C192  1  0.55756000  0.51744000  0.62786000  1.0
  C  C193  1  0.60198000  0.54217000  0.60994000  1.0
  C  C194  1  0.60236000  0.54261000  0.57670000  1.0
  C  C195  1  0.55906000  0.51785000  0.56063000  1.0
  C  C196  1  0.55586000  0.51516000  0.66325000  1.0
  C  C197  1  0.58268000  0.54607000  0.68137000  1.0
  C  C198  1  0.58164000  0.54288000  0.71674000  1.0
  C  C199  1  0.59202000  0.58368000  0.73364000  1.0
  C  C200  1  0.59198000  0.58206000  0.76692000  1.0
  C  C201  1  0.58168000  0.53944000  0.78402000  1.0
  C  C202  1  0.57216000  0.49842000  0.76709000  1.0
  C  C203  1  0.57260000  0.49996000  0.73386000  1.0
  Cu  Cu204  1  0.11022000  0.06706000  0.96298000  1.0
  Cu  Cu205  1  0.01916000  0.00691000  0.96753000  1.0
  Cu  Cu206  1  0.60300000  0.55245000  0.46391000  1.0
  Cu  Cu207  1  0.52000000  0.48537000  0.46558000  1.0
  H  H208  1  0.12284000  0.19021000  0.00939000  1.0
  H  H209  1  0.01806000  0.87801000  0.92771000  1.0
  H  H210  1  0.61154000  0.67149000  0.51674000  1.0
  H  H211  1  0.52516000  0.36212000  0.41784000  1.0
  H  H212  1  0.26440000  0.14755000  0.92912000  1.0
  H  H213  1  0.35322000  0.19601000  0.92197000  1.0
  H  H214  1  0.30270000  0.26412000  0.01113000  1.0
  H  H215  1  0.21482000  0.21544000  0.01861000  1.0
  H  H216  1  0.42332000  0.25120000  0.94171000  1.0
  H  H217  1  0.35612000  0.32225000  0.98841000  1.0
  H  H218  1  0.42604000  0.38670000  0.00007000  1.0
  H  H219  1  0.48852000  0.44955000  0.97756000  1.0
  H  H220  1  0.52084000  0.37003000  0.89127000  1.0
  H  H221  1  0.45834000  0.30910000  0.91282000  1.0
  H  H222  1  0.85320000  0.10387000  0.95652000  1.0
  H  H223  1  0.77114000  0.17011000  0.95542000  1.0
  H  H224  1  0.91338000  0.27038000  0.95848000  1.0
  H  H225  1  0.99540000  0.20411000  0.95916000  1.0
  H  H226  1  0.73684000  0.25274000  0.96677000  1.0
  H  H227  1  0.83252000  0.32347000  0.94549000  1.0
  H  H228  1  0.77258000  0.40430000  0.93408000  1.0
  H  H229  1  0.70234000  0.46974000  0.95671000  1.0
  H  H230  1  0.62414000  0.36884000  0.02319000  1.0
  H  H231  1  0.69368000  0.30462000  0.00151000  1.0
  H  H232  1  0.83360000  0.94608000  0.96327000  1.0
  H  H233  1  0.74820000  0.89303000  0.96515000  1.0
  H  H234  1  0.88608000  0.77029000  0.96066000  1.0
  H  H235  1  0.97052000  0.82286000  0.95934000  1.0
  H  H236  1  0.71412000  0.81339000  0.95051000  1.0
  H  H237  1  0.80230000  0.73379000  0.98148000  1.0
  H  H238  1  0.74194000  0.66249000  0.99505000  1.0
  H  H239  1  0.68212000  0.60093000  0.97338000  1.0
  H  H240  1  0.62028000  0.69940000  0.89715000  1.0
  H  H241  1  0.67992000  0.76002000  0.91815000  1.0
  H  H242  1  0.13040000  0.87718000  0.99257000  1.0
  H  H243  1  0.20836000  0.80900000  0.99979000  1.0
  H  H244  1  0.35272000  0.89095000  0.95701000  1.0
  H  H245  1  0.27456000  0.96005000  0.95019000  1.0
  H  H246  1  0.32168000  0.78204000  0.00780000  1.0
  H  H247  1  0.39522000  0.80879000  0.94678000  1.0
  H  H248  1  0.44418000  0.71799000  0.93475000  1.0
  H  H249  1  0.50450000  0.64519000  0.95537000  1.0
  H  H250  1  0.48912000  0.70252000  0.04998000  1.0
  H  H251  1  0.42878000  0.77357000  0.02954000  1.0
  H  H252  1  0.72998000  0.65402000  0.42600000  1.0
  H  H253  1  0.80804000  0.71128000  0.41628000  1.0
  H  H254  1  0.78258000  0.75651000  0.51368000  1.0
  H  H255  1  0.70554000  0.69891000  0.52341000  1.0
  H  H256  1  0.86546000  0.77523000  0.43114000  1.0
  H  H257  1  0.85186000  0.80755000  0.50029000  1.0
  H  H258  1  0.88040000  0.89335000  0.50017000  1.0
  H  H259  1  0.94092000  0.95761000  0.47768000  1.0
  H  H260  1  0.02096000  0.86262000  0.40528000  1.0
  H  H261  1  0.96308000  0.79857000  0.42807000  1.0
  H  H262  1  0.34368000  0.57392000  0.46720000  1.0
  H  H263  1  0.25632000  0.63638000  0.46920000  1.0
  H  H264  1  0.38888000  0.74439000  0.46251000  1.0
  H  H265  1  0.47600000  0.68212000  0.46028000  1.0
  H  H266  1  0.21868000  0.71948000  0.48175000  1.0
  H  H267  1  0.30102000  0.79082000  0.44791000  1.0
  H  H268  1  0.23140000  0.86670000  0.43473000  1.0
  H  H269  1  0.16184000  0.93304000  0.45655000  1.0
  H  H270  1  0.11242000  0.84135000  0.53630000  1.0
  H  H271  1  0.18140000  0.77628000  0.51517000  1.0
  H  H272  1  0.48978000  0.29984000  0.44706000  1.0
  H  H273  1  0.41308000  0.24052000  0.45117000  1.0
  H  H274  1  0.26498000  0.35218000  0.47109000  1.0
  H  H275  1  0.34180000  0.41182000  0.46627000  1.0
  H  H276  1  0.30708000  0.21690000  0.46433000  1.0
  H  H277  1  0.20756000  0.29898000  0.44786000  1.0
  H  H278  1  0.13352000  0.26605000  0.41164000  1.0
  H  H279  1  0.07498000  0.20089000  0.39482000  1.0
  H  H280  1  0.16544000  0.10640000  0.46617000  1.0
  H  H281  1  0.22494000  0.17176000  0.48289000  1.0
  H  H282  1  0.78000000  0.46281000  0.46843000  1.0
  H  H283  1  0.86592000  0.39902000  0.47120000  1.0
  H  H284  1  0.73186000  0.29364000  0.46268000  1.0
  H  H285  1  0.64654000  0.35706000  0.45968000  1.0
  H  H286  1  0.89916000  0.31367000  0.48436000  1.0
  H  H287  1  0.82092000  0.24840000  0.44764000  1.0
  H  H288  1  0.88764000  0.17222000  0.43507000  1.0
  H  H289  1  0.94928000  0.10148000  0.45717000  1.0
  H  H290  1  0.99232000  0.18258000  0.53813000  1.0
  H  H291  1  0.93050000  0.25210000  0.51680000  1.0
  H  H292  1  0.12938000  0.08704000  0.86135000  1.0
  H  H293  1  0.12396000  0.08746000  0.80342000  1.0
  H  H294  1  0.99334000  0.97807000  0.81102000  1.0
  H  H295  1  0.99936000  0.97713000  0.86869000  1.0
  H  H296  1  0.06848000  0.06751000  0.75533000  1.0
  H  H297  1  0.03596000  0.96329000  0.76181000  1.0
  H  H298  1  0.06814000  0.92501000  0.71005000  1.0
  H  H299  1  0.06800000  0.92775000  0.65196000  1.0
  H  H300  1  0.00898000  0.07945000  0.65300000  1.0
  H  H301  1  0.00846000  0.07633000  0.71082000  1.0
  H  H302  1  0.14222000  0.08632000  0.06187000  1.0
  H  H303  1  0.14088000  0.09155000  0.11970000  1.0
  H  H304  1  0.97346000  0.01482000  0.12622000  1.0
  H  H305  1  0.97586000  0.00851000  0.06875000  1.0
  H  H306  1  0.08764000  0.08338000  0.17181000  1.0
  H  H307  1  0.00934000  0.99680000  0.17448000  1.0
  H  H308  1  0.01332000  0.95568000  0.22640000  1.0
  H  H309  1  0.01736000  0.95673000  0.28417000  1.0
  H  H310  1  0.06060000  0.10450000  0.27793000  1.0
  H  H311  1  0.05512000  0.10375000  0.22044000  1.0
  H  H312  1  0.61896000  0.58193000  0.36360000  1.0
  H  H313  1  0.61556000  0.58690000  0.30565000  1.0
  H  H314  1  0.49754000  0.46929000  0.30727000  1.0
  H  H315  1  0.50150000  0.46392000  0.36509000  1.0
  H  H316  1  0.56510000  0.56789000  0.25618000  1.0
  H  H317  1  0.54228000  0.46144000  0.25764000  1.0
  H  H318  1  0.58218000  0.43043000  0.20436000  1.0
  H  H319  1  0.58662000  0.43990000  0.14638000  1.0
  H  H320  1  0.51054000  0.58761000  0.15401000  1.0
  H  H321  1  0.50544000  0.57774000  0.21154000  1.0
  H  H322  1  0.48126000  0.47319000  0.56680000  1.0
  H  H323  1  0.48022000  0.47280000  0.62487000  1.0
  H  H324  1  0.63742000  0.56052000  0.62125000  1.0
  H  H325  1  0.63718000  0.56194000  0.56362000  1.0
  H  H326  1  0.52934000  0.48774000  0.67463000  1.0
  H  H327  1  0.60422000  0.57619000  0.67018000  1.0
  H  H328  1  0.59980000  0.61706000  0.72107000  1.0
  H  H329  1  0.59962000  0.61433000  0.77918000  1.0
  H  H330  1  0.56506000  0.46476000  0.77944000  1.0
  H  H331  1  0.56694000  0.46714000  0.72189000  1.0
  N  N332  1  0.07834000  0.97492000  0.49892000  1.0
  N  N333  1  0.09448000  0.93174000  0.54736000  1.0
  N  N334  1  0.02860000  0.05388000  0.49932000  1.0
  N  N335  1  0.01986000  0.04698000  0.59642000  1.0
  N  N336  1  0.06546000  0.96757000  0.59592000  1.0
  N  N337  1  0.00110000  0.08984000  0.54827000  1.0
  N  N338  1  0.04766000  0.01075000  0.54762000  1.0
  N  N339  1  0.02974000  0.99410000  0.43577000  1.0
  N  N340  1  0.00898000  0.95566000  0.38875000  1.0
  N  N341  1  0.07200000  0.06947000  0.43236000  1.0
  N  N342  1  0.06222000  0.06947000  0.33552000  1.0
  N  N343  1  0.02526000  0.99306000  0.33889000  1.0
  N  N344  1  0.08550000  0.10753000  0.38213000  1.0
  N  N345  1  0.04738000  0.03154000  0.38565000  1.0
  N  N346  1  0.60616000  0.50699000  0.99624000  1.0
  N  N347  1  0.61638000  0.45693000  0.04220000  1.0
  N  N348  1  0.55600000  0.58558000  0.00033000  1.0
  N  N349  1  0.53546000  0.56436000  0.09641000  1.0
  N  N350  1  0.58196000  0.48561000  0.09216000  1.0
  N  N351  1  0.52178000  0.61374000  0.05067000  1.0
  N  N352  1  0.56958000  0.53552000  0.04624000  1.0
  N  N353  1  0.55724000  0.49261000  0.93257000  1.0
  N  N354  1  0.53920000  0.45835000  0.88368000  1.0
  N  N355  1  0.60068000  0.56731000  0.93282000  1.0
  N  N356  1  0.60024000  0.57429000  0.83570000  1.0
  N  N357  1  0.56108000  0.49870000  0.83549000  1.0
  N  N358  1  0.62000000  0.60845000  0.88426000  1.0
  N  N359  1  0.57988000  0.53325000  0.88416000  1.0
  O  O360  1  0.10356000  0.06062000  0.91815000  1.0
  O  O361  1  0.02880000  0.00722000  0.92202000  1.0
  O  O362  1  0.04026000  0.11574000  0.96043000  1.0
  O  O363  1  0.96336000  0.06408000  0.96342000  1.0
  O  O364  1  0.17676000  0.10962000  0.96063000  1.0
  O  O365  1  0.12748000  0.16018000  0.99651000  1.0
  O  O366  1  0.02054000  0.01778000  0.01219000  1.0
  O  O367  1  0.10274000  0.06449000  0.00852000  1.0
  O  O368  1  0.08898000  0.95940000  0.97212000  1.0
  O  O369  1  0.16662000  0.00930000  0.96329000  1.0
  O  O370  1  0.95406000  0.96287000  0.97059000  1.0
  O  O371  1  0.01146000  0.90897000  0.93960000  1.0
  O  O372  1  0.59648000  0.54823000  0.41884000  1.0
  O  O373  1  0.52626000  0.49135000  0.42013000  1.0
  O  O374  1  0.52846000  0.59663000  0.46391000  1.0
  O  O375  1  0.45830000  0.53972000  0.46476000  1.0
  O  O376  1  0.66346000  0.60024000  0.46168000  1.0
  O  O377  1  0.61670000  0.64305000  0.50237000  1.0
  O  O378  1  0.52402000  0.49075000  0.51076000  1.0
  O  O379  1  0.59668000  0.54576000  0.50929000  1.0
  O  O380  1  0.59520000  0.44193000  0.46551000  1.0
  O  O381  1  0.66552000  0.49859000  0.46325000  1.0
  O  O382  1  0.46022000  0.43688000  0.46784000  1.0
  O  O383  1  0.51722000  0.39103000  0.43171000  1.0
