# generated using pymatgen
data_Cu6H178C218S12N24O37
_symmetry_space_group_name_H-M   'P 1'
_cell_length_a   27.28880000
_cell_length_b   29.07400000
_cell_length_c   31.64800000
_cell_angle_alpha   80.10300000
_cell_angle_beta   85.74600000
_cell_angle_gamma   77.44800000
_symmetry_Int_Tables_number   1
_chemical_formula_structural   Cu6H178C218S12N24O37
_chemical_formula_sum   'Cu6 H178 C218 S12 N24 O37'
_cell_volume   24126.76715883
_cell_formula_units_Z   1
loop_
 _symmetry_equiv_pos_site_id
 _symmetry_equiv_pos_as_xyz
  1  'x, y, z'
loop_
 _atom_site_type_symbol
 _atom_site_label
 _atom_site_symmetry_multiplicity
 _atom_site_fract_x
 _atom_site_fract_y
 _atom_site_fract_z
 _atom_site_occupancy
  Cu  Cu0  1  0.08470000  0.87347000  0.89785000  1.0
  Cu  Cu1  1  0.01371000  0.83444000  0.83235000  1.0
  Cu  Cu2  1  0.14459000  0.92164000  0.95815000  1.0
  Cu  Cu3  1  0.07644000  0.89880000  0.79240000  1.0
  Cu  Cu4  1  0.15448000  0.93183000  0.86228000  1.0
  Cu  Cu5  1  0.01686000  0.84036000  0.73689000  1.0
  H  H6  1  0.23334000  0.32651000  0.82987000  1.0
  H  H7  1  0.17453000  0.34060000  0.80359000  1.0
  H  H8  1  0.36442000  0.40065000  0.84101000  1.0
  H  H9  1  0.17488000  0.42718000  0.80067000  1.0
  H  H10  1  0.23553000  0.41355000  0.82422000  1.0
  H  H11  1  0.15244000  0.61147000  0.78995000  1.0
  H  H12  1  0.45605000  0.39188000  0.84000000  1.0
  H  H13  1  0.28970000  0.17504000  0.88660000  1.0
  H  H14  1  0.29174000  0.25094000  0.84025000  1.0
  H  H15  1  0.21788000  0.41811000  0.70515000  1.0
  H  H16  1  0.16497000  0.39572000  0.73133000  1.0
  H  H17  1  0.21681000  0.35619000  0.70913000  1.0
  H  H18  1  0.30085000  0.33561000  0.74372000  1.0
  H  H19  1  0.30165000  0.39785000  0.74182000  1.0
  H  H20  1  0.38169000  0.29976000  0.75310000  1.0
  H  H21  1  0.16595000  0.23709000  0.77280000  1.0
  H  H22  1  0.16343000  0.16030000  0.81907000  1.0
  H  H23  1  0.29189000  0.47091000  0.82186000  1.0
  H  H24  1  0.28987000  0.54175000  0.85410000  1.0
  H  H25  1  0.47278000  0.29159000  0.75156000  1.0
  H  H26  1  0.15484000  0.53934000  0.75861000  1.0
  H  H27  1  0.90212000  0.45619000  0.74161000  1.0
  H  H28  1  0.96701000  0.44653000  0.72082000  1.0
  H  H29  1  0.75592000  0.50432000  0.72411000  1.0
  H  H30  1  0.96928000  0.36390000  0.71265000  1.0
  H  H31  1  0.90772000  0.37218000  0.73882000  1.0
  H  H32  1  0.87926000  0.22914000  0.79338000  1.0
  H  H33  1  0.66674000  0.51588000  0.70817000  1.0
  H  H34  1  0.96604000  0.54923000  0.81444000  1.0
  H  H35  1  0.95172000  0.48994000  0.77612000  1.0
  H  H36  1  0.94149000  0.40501000  0.61971000  1.0
  H  H37  1  0.98843000  0.42128000  0.64787000  1.0
  H  H38  1  0.93890000  0.46668000  0.62238000  1.0
  H  H39  1  0.84918000  0.47743000  0.65632000  1.0
  H  H40  1  0.85274000  0.41713000  0.64760000  1.0
  H  H41  1  0.78798000  0.37234000  0.67343000  1.0
  H  H42  1  0.91249000  0.59770000  0.66436000  1.0
  H  H43  1  0.92691000  0.65841000  0.70446000  1.0
  H  H44  1  0.99400000  0.27290000  0.67127000  1.0
  H  H45  1  0.01581000  0.19431000  0.71649000  1.0
  H  H46  1  0.69920000  0.38405000  0.65648000  1.0
  H  H47  1  0.85813000  0.30717000  0.74774000  1.0
  H  H48  1  0.08434000  0.71470000  0.29246000  1.0
  H  H49  1  0.10741000  0.76422000  0.30467000  1.0
  H  H50  1  0.03170000  0.59296000  0.38035000  1.0
  H  H51  1  0.08937000  0.74445000  0.38571000  1.0
  H  H52  1  0.05641000  0.70497000  0.36853000  1.0
  H  H53  1  0.18426000  0.67158000  0.53689000  1.0
  H  H54  1  0.03305000  0.50896000  0.41065000  1.0
  H  H55  1  0.13784000  0.81691000  0.14135000  1.0
  H  H56  1  0.16261000  0.79909000  0.21634000  1.0
  H  H57  1  0.19538000  0.68992000  0.39034000  1.0
  H  H58  1  0.17647000  0.74846000  0.35955000  1.0
  H  H59  1  0.21502000  0.70094000  0.33492000  1.0
  H  H60  1  0.17545000  0.63499000  0.31534000  1.0
  H  H61  1  0.16498000  0.62150000  0.37245000  1.0
  H  H62  1  0.17862000  0.55175000  0.32130000  1.0
  H  H63  1  0.11750000  0.66437000  0.23144000  1.0
  H  H64  1  0.09310000  0.68077000  0.15696000  1.0
  H  H65  1  0.03327000  0.73996000  0.45105000  1.0
  H  H66  1  0.03982000  0.76807000  0.51868000  1.0
  H  H67  1  0.18037000  0.46819000  0.35200000  1.0
  H  H68  1  0.17735000  0.64495000  0.46915000  1.0
  H  H69  1  0.09331000  0.05552000  0.33060000  1.0
  H  H70  1  0.06512000  0.01556000  0.30917000  1.0
  H  H71  1  0.11229000  0.16757000  0.31880000  1.0
  H  H72  1  0.03835000  0.99478000  0.38867000  1.0
  H  H73  1  0.05804000  0.04493000  0.40334000  1.0
  H  H74  1  0.01914000  0.09207000  0.53772000  1.0
  H  H75  1  0.11043000  0.25148000  0.28774000  1.0
  H  H76  1  0.11709000  0.99189000  0.17777000  1.0
  H  H77  1  0.12210000  0.01946000  0.24590000  1.0
  H  H78  1  0.93374000  0.05484000  0.35099000  1.0
  H  H79  1  0.97696000  0.00882000  0.32787000  1.0
  H  H80  1  0.95825000  0.06745000  0.29721000  1.0
  H  H81  1  0.98270000  0.13679000  0.31873000  1.0
  H  H82  1  0.96658000  0.12296000  0.37484000  1.0
  H  H83  1  0.96169000  0.20735000  0.37120000  1.0
  H  H84  1  0.98085000  0.11826000  0.22408000  1.0
  H  H85  1  0.97556000  0.09223000  0.15574000  1.0
  H  H86  1  0.99894000  0.95486000  0.47169000  1.0
  H  H87  1  0.02179000  0.94129000  0.54718000  1.0
  H  H88  1  0.95951000  0.29096000  0.33993000  1.0
  H  H89  1  0.99703000  0.10438000  0.46265000  1.0
  H  H90  1  0.57005000  0.96311000  0.63182000  1.0
  H  H91  1  0.59329000  0.95573000  0.68316000  1.0
  H  H92  1  0.55564000  0.96406000  0.52075000  1.0
  H  H93  1  0.54032000  0.89590000  0.70743000  1.0
  H  H94  1  0.51834000  0.90552000  0.65301000  1.0
  H  H95  1  0.37811000  0.87787000  0.73206000  1.0
  H  H96  1  0.58294000  0.96346000  0.44510000  1.0
  H  H97  1  0.70485000  0.00218000  0.74272000  1.0
  H  H98  1  0.64000000  0.00772000  0.69237000  1.0
  H  H99  1  0.63354000  0.82171000  0.69999000  1.0
  H  H100  1  0.63427000  0.87506000  0.72125000  1.0
  H  H101  1  0.67756000  0.85713000  0.67836000  1.0
  H  H102  1  0.65082000  0.87263000  0.60378000  1.0
  H  H103  1  0.61049000  0.83057000  0.62037000  1.0
  H  H104  1  0.63339000  0.81717000  0.55171000  1.0
  H  H105  1  0.73811000  0.90329000  0.62675000  1.0
  H  H106  1  0.80412000  0.89768000  0.67652000  1.0
  H  H107  1  0.51622000  0.75399000  0.68482000  1.0
  H  H108  1  0.43546000  0.73366000  0.70772000  1.0
  H  H109  1  0.66148000  0.81718000  0.47687000  1.0
  H  H110  1  0.45760000  0.89784000  0.70992000  1.0
  H  H111  1  0.53256000  0.82975000  0.08016000  1.0
  H  H112  1  0.55043000  0.80149000  0.03348000  1.0
  H  H113  1  0.51423000  0.87384000  0.18073000  1.0
  H  H114  1  0.63680000  0.80581000  0.03374000  1.0
  H  H115  1  0.62265000  0.83725000  0.07913000  1.0
  H  H116  1  0.75933000  0.90624000  0.07613000  1.0
  H  H117  1  0.48168000  0.87503000  0.25503000  1.0
  H  H118  1  0.36368000  0.85758000  0.02914000  1.0
  H  H119  1  0.42638000  0.83327000  0.08497000  1.0
  H  H120  1  0.65212000  0.70202000  0.08452000  1.0
  H  H121  1  0.61652000  0.72454000  0.03697000  1.0
  H  H122  1  0.58780000  0.69685000  0.08485000  1.0
  H  H123  1  0.56676000  0.73963000  0.14912000  1.0
  H  H124  1  0.63198000  0.74374000  0.14950000  1.0
  H  H125  1  0.60867000  0.73532000  0.22022000  1.0
  H  H126  1  0.50834000  0.72312000  0.01667000  1.0
  H  H127  1  0.44634000  0.74658000  0.96071000  1.0
  H  H128  1  0.74504000  0.76163000  0.01873000  1.0
  H  H129  1  0.80499000  0.80936000  0.98398000  1.0
  H  H130  1  0.57548000  0.73639000  0.29350000  1.0
  H  H131  1  0.69962000  0.85831000  0.10971000  1.0
  H  H132  1  0.03785000  0.92441000  0.96812000  1.0
  H  H133  1  0.98656000  0.91052000  0.00436000  1.0
  H  H134  1  0.97767000  0.96448000  0.96553000  1.0
  H  H135  1  0.91079000  0.85214000  0.89399000  1.0
  H  H136  1  0.18394000  0.81873000  0.92136000  1.0
  H  H137  1  0.22866000  0.79228000  0.88291000  1.0
  H  H138  1  0.20722000  0.75498000  0.92902000  1.0
  H  H139  1  0.09004000  0.73158000  0.82892000  1.0
  H  H140  1  0.12184000  0.84516000  0.72645000  1.0
  H  H141  1  0.25851000  0.87771000  0.81610000  1.0
  H  H142  1  0.18421000  0.81654000  0.71102000  1.0
  H  H143  1  0.14866000  0.78590000  0.75285000  1.0
  H  H144  1  0.98098000  0.96563000  0.77479000  1.0
  H  H145  1  0.95376000  0.02340000  0.78976000  1.0
  H  H146  1  0.98491000  0.01997000  0.73821000  1.0
  H  H147  1  0.10166000  0.04441000  0.84652000  1.0
  H  H148  1  0.60267000  0.49613000  0.67027000  1.0
  H  H149  1  0.61985000  0.44963000  0.63749000  1.0
  H  H150  1  0.60273000  0.37104000  0.66337000  1.0
  H  H151  1  0.58282000  0.47387000  0.74981000  1.0
  H  H152  1  0.54437000  0.29453000  0.79443000  1.0
  H  H153  1  0.53752000  0.33651000  0.83066000  1.0
  H  H154  1  0.54254000  0.42103000  0.80365000  1.0
  H  H155  1  0.56245000  0.31829000  0.71714000  1.0
  H  H156  1  0.14873000  0.41340000  0.41178000  1.0
  H  H157  1  0.08638000  0.43002000  0.43518000  1.0
  H  H158  1  0.16132000  0.38234000  0.34291000  1.0
  H  H159  1  0.01239000  0.42115000  0.39935000  1.0
  H  H160  1  0.99305000  0.34634000  0.28223000  1.0
  H  H161  1  0.05498000  0.32950000  0.25936000  1.0
  H  H162  1  0.98019000  0.37743000  0.35153000  1.0
  H  H163  1  0.12910000  0.33871000  0.29507000  1.0
  H  H164  1  0.46794000  0.82856000  0.32633000  1.0
  H  H165  1  0.50645000  0.76990000  0.34215000  1.0
  H  H166  1  0.59284000  0.76110000  0.36693000  1.0
  H  H167  1  0.49801000  0.90052000  0.33392000  1.0
  H  H168  1  0.68083000  0.86865000  0.40713000  1.0
  H  H169  1  0.64232000  0.92678000  0.39235000  1.0
  H  H170  1  0.55507000  0.93555000  0.36893000  1.0
  H  H171  1  0.65007000  0.79616000  0.40155000  1.0
  H  H172  1  0.30319000  0.61704000  0.85270000  1.0
  H  H173  1  0.93017000  0.61035000  0.85315000  1.0
  H  H174  1  0.92719000  0.18030000  0.84948000  1.0
  H  H175  1  0.25159000  0.13320000  0.94531000  1.0
  H  H176  1  0.19772000  0.71437000  0.58653000  1.0
  H  H177  1  0.05323000  0.70682000  0.09517000  1.0
  H  H178  1  0.07013000  0.07066000  0.59496000  1.0
  H  H179  1  0.96255000  0.05018000  0.10536000  1.0
  H  H180  1  0.35653000  0.72156000  0.71697000  1.0
  H  H181  1  0.75566000  0.97705000  0.79909000  1.0
  H  H182  1  0.41527000  0.80010000  0.89959000  1.0
  H  H183  1  0.79863000  0.95793000  0.03285000  1.0
  C  C184  1  0.23241000  0.37677000  0.76998000  1.0
  C  C185  1  0.21608000  0.33264000  0.79799000  1.0
  C  C186  1  0.22259000  0.49945000  0.78910000  1.0
  C  C187  1  0.38783000  0.37768000  0.82065000  1.0
  C  C188  1  0.21610000  0.42114000  0.79321000  1.0
  C  C189  1  0.18259000  0.58077000  0.79799000  1.0
  C  C190  1  0.36579000  0.35262000  0.79593000  1.0
  C  C191  1  0.47123000  0.34132000  0.79546000  1.0
  C  C192  1  0.43999000  0.37253000  0.82016000  1.0
  C  C193  1  0.26171000  0.18832000  0.86252000  1.0
  C  C194  1  0.26282000  0.23195000  0.83627000  1.0
  C  C195  1  0.22715000  0.25079000  0.80474000  1.0
  C  C196  1  0.20651000  0.38731000  0.72642000  1.0
  C  C197  1  0.29044000  0.36604000  0.76190000  1.0
  C  C198  1  0.39715000  0.32147000  0.77092000  1.0
  C  C199  1  0.19243000  0.22382000  0.79812000  1.0
  C  C200  1  0.19142000  0.17985000  0.82422000  1.0
  C  C201  1  0.22556000  0.16197000  0.85722000  1.0
  C  C202  1  0.26073000  0.50105000  0.81579000  1.0
  C  C203  1  0.25983000  0.54208000  0.83354000  1.0
  C  C204  1  0.22122000  0.58289000  0.82422000  1.0
  C  C205  1  0.44935000  0.31630000  0.77042000  1.0
  C  C206  1  0.18370000  0.53962000  0.78019000  1.0
  C  C207  1  0.91504000  0.42564000  0.68263000  1.0
  C  C208  1  0.92690000  0.45913000  0.71208000  1.0
  C  C209  1  0.92547000  0.29599000  0.70721000  1.0
  C  C210  1  0.74367000  0.47831000  0.70897000  1.0
  C  C211  1  0.92817000  0.37354000  0.70689000  1.0
  C  C212  1  0.90491000  0.23808000  0.76704000  1.0
  C  C213  1  0.77854000  0.43864000  0.69830000  1.0
  C  C214  1  0.67640000  0.45113000  0.68058000  1.0
  C  C215  1  0.69299000  0.48473000  0.69997000  1.0
  C  C216  1  0.95384000  0.56065000  0.78184000  1.0
  C  C217  1  0.94570000  0.52613000  0.75916000  1.0
  C  C218  1  0.92989000  0.53883000  0.71622000  1.0
  C  C219  1  0.94788000  0.42991000  0.64073000  1.0
  C  C220  1  0.85865000  0.43923000  0.67156000  1.0
  C  C221  1  0.76181000  0.40419000  0.68022000  1.0
  C  C222  1  0.92417000  0.58691000  0.69716000  1.0
  C  C223  1  0.93259000  0.62155000  0.72001000  1.0
  C  C224  1  0.94650000  0.60885000  0.76291000  1.0
  C  C225  1  0.96891000  0.26316000  0.69780000  1.0
  C  C226  1  0.98111000  0.21841000  0.72359000  1.0
  C  C227  1  0.94993000  0.20590000  0.75921000  1.0
  C  C228  1  0.71124000  0.41068000  0.67095000  1.0
  C  C229  1  0.89260000  0.28257000  0.74100000  1.0
  C  C230  1  0.13539000  0.69578000  0.34553000  1.0
  C  C231  1  0.11840000  0.72575000  0.30146000  1.0
  C  C232  1  0.10616000  0.69196000  0.45417000  1.0
  C  C233  1  0.06428000  0.56585000  0.37421000  1.0
  C  C234  1  0.09310000  0.70677000  0.38050000  1.0
  C  C235  1  0.15157000  0.68807000  0.51827000  1.0
  C  C236  1  0.10564000  0.57900000  0.35017000  1.0
  C  C237  1  0.10720000  0.48241000  0.38420000  1.0
  C  C238  1  0.06509000  0.51807000  0.39139000  1.0
  C  C239  1  0.13260000  0.78364000  0.16060000  1.0
  C  C240  1  0.14645000  0.77382000  0.20346000  1.0
  C  C241  1  0.14002000  0.73136000  0.22952000  1.0
  C  C242  1  0.18330000  0.70961000  0.35830000  1.0
  C  C243  1  0.14737000  0.64170000  0.34209000  1.0
  C  C244  1  0.14701000  0.54297000  0.34132000  1.0
  C  C245  1  0.12085000  0.69812000  0.21201000  1.0
  C  C246  1  0.10700000  0.70775000  0.16925000  1.0
  C  C247  1  0.11266000  0.75073000  0.14286000  1.0
  C  C248  1  0.06693000  0.72609000  0.46913000  1.0
  C  C249  1  0.07052000  0.74165000  0.50808000  1.0
  C  C250  1  0.11300000  0.72293000  0.53314000  1.0
  C  C251  1  0.14786000  0.49520000  0.35852000  1.0
  C  C252  1  0.14780000  0.67258000  0.47948000  1.0
  C  C253  1  0.01258000  0.06297000  0.34671000  1.0
  C  C254  1  0.05886000  0.05322000  0.31512000  1.0
  C  C255  1  0.99778000  0.03034000  0.46178000  1.0
  C  C256  1  0.07885000  0.19439000  0.32337000  1.0
  C  C257  1  0.02575000  0.03320000  0.39165000  1.0
  C  C258  1  0.01586000  0.06140000  0.52390000  1.0
  C  C259  1  0.03669000  0.18092000  0.34575000  1.0
  C  C260  1  0.03452000  0.27733000  0.31096000  1.0
  C  C261  1  0.07774000  0.24210000  0.30577000  1.0
  C  C262  1  0.08666000  0.01905000  0.18763000  1.0
  C  C263  1  0.08934000  0.03429000  0.22685000  1.0
  C  C264  1  0.05034000  0.06922000  0.24095000  1.0
  C  C265  1  0.96784000  0.04760000  0.32973000  1.0
  C  C266  1  0.99758000  0.11699000  0.35023000  1.0
  C  C267  1  0.99406000  0.21652000  0.35255000  1.0
  C  C268  1  0.01007000  0.08995000  0.21441000  1.0
  C  C269  1  0.00721000  0.07480000  0.17531000  1.0
  C  C270  1  0.04542000  0.03896000  0.16140000  1.0
  C  C271  1  0.00399000  0.98458000  0.48612000  1.0
  C  C272  1  0.01671000  0.97709000  0.52917000  1.0
  C  C273  1  0.02323000  0.01537000  0.54851000  1.0
  C  C274  1  0.99294000  0.26425000  0.33501000  1.0
  C  C275  1  0.00302000  0.06874000  0.48103000  1.0
  C  C276  1  0.59993000  0.88837000  0.65818000  1.0
  C  C277  1  0.60167000  0.94244000  0.65192000  1.0
  C  C278  1  0.49423000  0.82718000  0.69468000  1.0
  C  C279  1  0.57906000  0.93202000  0.51140000  1.0
  C  C280  1  0.54650000  0.88301000  0.67587000  1.0
  C  C281  1  0.40779000  0.85026000  0.72185000  1.0
  C  C282  1  0.59383000  0.89172000  0.54247000  1.0
  C  C283  1  0.62493000  0.89050000  0.45553000  1.0
  C  C284  1  0.59462000  0.93165000  0.46838000  1.0
  C  C285  1  0.71273000  0.97963000  0.71819000  1.0
  C  C286  1  0.67519000  0.98254000  0.68955000  1.0
  C  C287  1  0.68301000  0.95276000  0.65793000  1.0
  C  C288  1  0.63850000  0.85914000  0.69134000  1.0
  C  C289  1  0.61181000  0.86912000  0.61496000  1.0
  C  C290  1  0.62300000  0.84980000  0.52922000  1.0
  C  C291  1  0.73077000  0.92462000  0.65229000  1.0
  C  C292  1  0.76838000  0.92163000  0.68078000  1.0
  C  C293  1  0.75937000  0.94800000  0.71493000  1.0
  C  C294  1  0.48608000  0.78122000  0.69500000  1.0
  C  C295  1  0.43958000  0.76971000  0.70808000  1.0
  C  C296  1  0.39966000  0.80425000  0.72145000  1.0
  C  C297  1  0.63876000  0.84953000  0.48625000  1.0
  C  C298  1  0.45414000  0.86178000  0.70875000  1.0
  C  C299  1  0.59752000  0.76965000  0.08753000  1.0
  C  C300  1  0.54542000  0.79448000  0.06931000  1.0
  C  C301  1  0.71751000  0.80731000  0.06591000  1.0
  C  C302  1  0.52731000  0.84347000  0.20511000  1.0
  C  C303  1  0.63582000  0.80127000  0.06957000  1.0
  C  C304  1  0.75641000  0.87538000  0.06249000  1.0
  C  C305  1  0.56246000  0.80421000  0.19394000  1.0
  C  C306  1  0.52559000  0.80546000  0.27964000  1.0
  C  C307  1  0.50878000  0.84412000  0.24739000  1.0
  C  C308  1  0.39476000  0.82787000  0.02617000  1.0
  C  C309  1  0.43035000  0.81421000  0.05798000  1.0
  C  C310  1  0.47203000  0.77718000  0.05410000  1.0
  C  C311  1  0.61446000  0.72044000  0.07259000  1.0
  C  C312  1  0.59447000  0.76254000  0.13733000  1.0
  C  C313  1  0.58008000  0.76563000  0.22670000  1.0
  C  C314  1  0.47655000  0.75223000  0.01946000  1.0
  C  C315  1  0.44135000  0.76604000  0.98748000  1.0
  C  C316  1  0.40066000  0.80474000  0.99000000  1.0
  C  C317  1  0.74809000  0.79342000  0.03093000  1.0
  C  C318  1  0.78220000  0.82076000  0.01127000  1.0
  C  C319  1  0.78660000  0.86231000  0.02659000  1.0
  C  C320  1  0.56140000  0.76626000  0.26896000  1.0
  C  C321  1  0.72237000  0.84795000  0.08204000  1.0
  C  C322  1  0.04830000  0.79728000  0.66197000  1.0
  C  C323  1  0.24032000  0.88597000  0.92154000  1.0
  C  C324  1  0.99704000  0.92640000  0.97139000  1.0
  C  C325  1  0.98167000  0.90075000  0.93932000  1.0
  C  C326  1  0.94074000  0.86544000  0.90518000  1.0
  C  C327  1  0.19590000  0.78735000  0.90480000  1.0
  C  C328  1  0.15388000  0.78201000  0.87963000  1.0
  C  C329  1  0.10469000  0.75364000  0.84699000  1.0
  C  C330  1  0.10717000  0.83624000  0.99234000  1.0
  C  C331  1  0.18310000  0.00208000  0.90808000  1.0
  C  C332  1  0.11276000  0.96338000  0.03392000  1.0
  C  C333  1  0.92644000  0.88308000  0.77563000  1.0
  C  C334  1  0.15686000  0.82112000  0.73844000  1.0
  C  C335  1  0.17674000  0.84189000  0.77186000  1.0
  C  C336  1  0.22515000  0.86972000  0.80540000  1.0
  C  C337  1  0.04407000  0.92928000  0.69827000  1.0
  C  C338  1  0.98567000  0.00295000  0.77238000  1.0
  C  C339  1  0.03451000  0.00442000  0.79031000  1.0
  C  C340  1  0.08673000  0.02490000  0.82618000  1.0
  C  C341  1  0.98608000  0.75943000  0.79346000  1.0
  C  C342  1  0.62193000  0.45827000  0.67013000  1.0
  C  C343  1  0.59604000  0.42628000  0.70270000  1.0
  C  C344  1  0.58958000  0.38230000  0.69385000  1.0
  C  C345  1  0.57838000  0.44003000  0.74241000  1.0
  C  C346  1  0.55004000  0.36549000  0.76458000  1.0
  C  C347  1  0.55542000  0.40995000  0.77305000  1.0
  C  C348  1  0.56661000  0.35224000  0.72447000  1.0
  C  C349  1  0.52752000  0.33206000  0.79836000  1.0
  C  C350  1  0.10920000  0.43120000  0.40453000  1.0
  C  C351  1  0.08923000  0.40514000  0.37459000  1.0
  C  C352  1  0.12172000  0.38159000  0.34490000  1.0
  C  C353  1  0.03807000  0.40338000  0.37659000  1.0
  C  C354  1  0.05215000  0.35527000  0.31943000  1.0
  C  C355  1  0.01973000  0.37848000  0.34936000  1.0
  C  C356  1  0.10337000  0.35672000  0.31765000  1.0
  C  C357  1  0.03237000  0.32837000  0.29011000  1.0
  C  C358  1  0.50684000  0.80678000  0.32549000  1.0
  C  C359  1  0.54119000  0.82820000  0.34784000  1.0
  C  C360  1  0.58434000  0.79920000  0.36719000  1.0
  C  C361  1  0.53106000  0.87751000  0.34868000  1.0
  C  C362  1  0.60721000  0.86857000  0.38723000  1.0
  C  C363  1  0.56367000  0.89749000  0.36844000  1.0
  C  C364  1  0.61702000  0.81920000  0.38680000  1.0
  C  C365  1  0.64186000  0.88999000  0.40921000  1.0
  C  C366  1  0.22204000  0.62796000  0.84028000  1.0
  C  C367  1  0.26567000  0.63881000  0.85291000  1.0
  C  C368  1  0.18948000  0.70116000  0.85723000  1.0
  C  C369  1  0.95190000  0.64545000  0.78860000  1.0
  C  C370  1  0.94278000  0.63987000  0.83301000  1.0
  C  C371  1  0.96947000  0.71386000  0.80119000  1.0
  C  C372  1  0.96562000  0.16047000  0.78889000  1.0
  C  C373  1  0.95142000  0.15423000  0.83253000  1.0
  C  C374  1  0.00968000  0.08623000  0.80913000  1.0
  C  C375  1  0.22258000  0.11708000  0.88699000  1.0
  C  C376  1  0.23697000  0.10917000  0.92950000  1.0
  C  C377  1  0.20301000  0.04502000  0.90890000  1.0
  C  C378  1  0.11604000  0.73874000  0.57501000  1.0
  C  C379  1  0.16051000  0.73116000  0.59690000  1.0
  C  C380  1  0.08549000  0.77233000  0.63331000  1.0
  C  C381  1  0.09908000  0.76105000  0.09695000  1.0
  C  C382  1  0.07002000  0.73578000  0.07895000  1.0
  C  C383  1  0.09806000  0.80003000  0.02876000  1.0
  C  C384  1  0.03749000  0.00714000  0.59401000  1.0
  C  C385  1  0.05998000  0.03811000  0.61147000  1.0
  C  C386  1  0.04636000  0.96729000  0.66159000  1.0
  C  C387  1  0.04339000  0.02336000  0.11933000  1.0
  C  C388  1  0.99977000  0.03233000  0.09605000  1.0
  C  C389  1  0.07520000  0.98916000  0.06171000  1.0
  C  C390  1  0.34937000  0.79366000  0.73463000  1.0
  C  C391  1  0.33429000  0.75183000  0.72994000  1.0
  C  C392  1  0.26928000  0.81133000  0.75949000  1.0
  C  C393  1  0.79844000  0.94114000  0.74697000  1.0
  C  C394  1  0.79023000  0.95707000  0.78668000  1.0
  C  C395  1  0.87475000  0.91036000  0.77418000  1.0
  C  C396  1  0.36554000  0.82217000  0.95454000  1.0
  C  C397  1  0.37904000  0.81706000  0.91190000  1.0
  C  C398  1  0.29291000  0.86068000  0.92404000  1.0
  C  C399  1  0.82369000  0.89050000  0.00582000  1.0
  C  C400  1  0.82470000  0.93643000  0.01301000  1.0
  C  C401  1  0.89210000  0.90253000  0.96488000  1.0
  S  S402  1  0.25066000  0.69328000  0.86712000  1.0
  S  S403  1  0.95392000  0.68757000  0.85040000  1.0
  S  S404  1  0.98094000  0.09973000  0.85547000  1.0
  S  S405  1  0.22526000  0.05644000  0.95324000  1.0
  S  S406  1  0.14692000  0.75371000  0.64279000  1.0
  S  S407  1  0.06383000  0.75900000  0.02680000  1.0
  S  S408  1  0.07063000  0.01534000  0.66312000  1.0
  S  S409  1  0.01444000  0.00962000  0.05035000  1.0
  S  S410  1  0.27384000  0.75655000  0.74720000  1.0
  S  S411  1  0.84350000  0.93770000  0.81378000  1.0
  S  S412  1  0.32950000  0.84379000  0.88202000  1.0
  S  S413  1  0.87423000  0.95360000  0.98515000  1.0
  N  N414  1  0.17767000  0.88924000  0.81729000  1.0
  N  N415  1  0.14781000  0.87219000  0.79569000  1.0
  N  N416  1  0.07150000  0.96569000  0.80072000  1.0
  N  N417  1  0.10428000  0.97839000  0.82321000  1.0
  N  N418  1  0.22570000  0.83895000  0.77799000  1.0
  N  N419  1  0.04385000  0.04230000  0.80513000  1.0
  N  N420  1  0.98765000  0.86054000  0.88727000  1.0
  N  N421  1  0.01306000  0.88182000  0.90911000  1.0
  N  N422  1  0.93579000  0.89093000  0.93766000  1.0
  N  N423  1  0.11053000  0.81453000  0.87477000  1.0
  N  N424  1  0.07933000  0.79642000  0.85564000  1.0
  N  N425  1  0.15169000  0.74331000  0.86175000  1.0
  N  N426  1  0.17996000  0.66304000  0.84245000  1.0
  N  N427  1  0.96648000  0.68694000  0.77091000  1.0
  N  N428  1  0.99818000  0.12229000  0.77607000  1.0
  N  N429  1  0.20354000  0.08124000  0.87566000  1.0
  N  N430  1  0.07459000  0.76189000  0.59550000  1.0
  N  N431  1  0.11426000  0.79686000  0.06873000  1.0
  N  N432  1  0.03021000  0.96774000  0.62211000  1.0
  N  N433  1  0.08507000  0.99907000  0.10000000  1.0
  N  N434  1  0.31295000  0.82619000  0.75147000  1.0
  N  N435  1  0.84556000  0.91533000  0.74049000  1.0
  N  N436  1  0.31762000  0.84646000  0.96101000  1.0
  N  N437  1  0.86112000  0.87220000  0.97861000  1.0
  O  O438  1  0.23001000  0.29233000  0.77661000  1.0
  O  O439  1  0.31452000  0.35462000  0.80162000  1.0
  O  O440  1  0.22730000  0.46210000  0.76626000  1.0
  O  O441  1  0.91899000  0.50719000  0.69122000  1.0
  O  O442  1  0.82804000  0.43183000  0.70922000  1.0
  O  O443  1  0.91519000  0.34115000  0.68309000  1.0
  O  O444  1  0.15844000  0.71980000  0.27035000  1.0
  O  O445  1  0.10306000  0.62701000  0.33416000  1.0
  O  O446  1  0.10213000  0.67208000  0.41813000  1.0
  O  O447  1  0.05356000  0.08831000  0.27758000  1.0
  O  O448  1  0.03937000  0.13303000  0.36214000  1.0
  O  O449  1  0.98286000  0.03845000  0.41996000  1.0
  O  O450  1  0.64631000  0.95275000  0.62989000  1.0
  O  O451  1  0.57601000  0.89438000  0.58450000  1.0
  O  O452  1  0.54217000  0.83472000  0.68124000  1.0
  O  O453  1  0.50940000  0.76603000  0.08346000  1.0
  O  O454  1  0.58062000  0.80739000  0.15148000  1.0
  O  O455  1  0.68408000  0.77997000  0.08524000  1.0
  O  O456  1  0.06481000  0.93237000  0.73393000  1.0
  O  O457  1  0.99160000  0.77783000  0.82760000  1.0
  O  O458  1  0.02212000  0.89418000  0.69418000  1.0
  O  O459  1  0.99519000  0.78021000  0.75398000  1.0
  O  O460  1  0.06229000  0.80530000  0.69845000  1.0
  O  O461  1  0.22143000  0.90204000  0.88319000  1.0
  O  O462  1  0.21317000  0.89039000  0.95728000  1.0
  O  O463  1  0.11600000  0.91841000  0.90961000  1.0
  O  O464  1  0.00137000  0.81253000  0.65098000  1.0
  O  O465  1  0.08696000  0.83663000  0.95551000  1.0
  O  O466  1  0.13333000  0.86758000  0.99822000  1.0
  O  O467  1  0.17896000  0.98770000  0.87118000  1.0
  O  O468  1  0.17114000  0.97846000  0.94555000  1.0
  O  O469  1  0.09994000  0.95769000  0.99624000  1.0
  O  O470  1  0.15859000  0.94515000  0.04676000  1.0
  O  O471  1  0.94957000  0.87385000  0.81238000  1.0
  O  O472  1  0.04526000  0.85213000  0.78256000  1.0
  O  O473  1  0.94802000  0.86857000  0.74033000  1.0
  O  O474  1  0.05266000  0.90552000  0.84771000  1.0
