# generated using pymatgen
data_Cu9H103C124N18(ClO)9
_symmetry_space_group_name_H-M   'P 1'
_cell_length_a   30.62190000
_cell_length_b   45.17883074
_cell_length_c   45.24470000
_cell_angle_alpha   60.27822525
_cell_angle_beta   89.31000000
_cell_angle_gamma   89.98531658
_symmetry_Int_Tables_number   1
_chemical_formula_structural   Cu9H103C124N18(ClO)9
_chemical_formula_sum   'Cu18 H206 C248 N36 Cl18 O18'
_cell_volume   54354.47870871
_cell_formula_units_Z   2
loop_
 _symmetry_equiv_pos_site_id
 _symmetry_equiv_pos_as_xyz
  1  'x, y, z'
loop_
 _atom_site_type_symbol
 _atom_site_label
 _atom_site_symmetry_multiplicity
 _atom_site_fract_x
 _atom_site_fract_y
 _atom_site_fract_z
 _atom_site_occupancy
  Cu  Cu0  1  0.77401000  0.63218000  0.43467000  1.0
  Cu  Cu1  1  0.68146000  0.63940000  0.48198000  1.0
  Cu  Cu2  1  0.18989000  0.41008000  0.66254000  1.0
  Cu  Cu3  1  0.75799000  0.96539000  0.46543000  1.0
  Cu  Cu4  1  0.85560000  0.01213000  0.45987000  1.0
  Cu  Cu5  1  0.76272000  0.04960000  0.40496000  1.0
  Cu  Cu6  1  0.19778000  0.02686000  0.42744000  1.0
  Cu  Cu7  1  0.21283000  0.46696000  0.96834000  1.0
  Cu  Cu8  1  0.11547000  0.45131000  0.01876000  1.0
  Cu  Cu9  1  0.21888000  0.41383000  0.05568000  1.0
  Cu  Cu10  1  0.10759000  0.06798000  0.44086000  1.0
  Cu  Cu11  1  0.71702000  0.65282000  0.95298000  1.0
  Cu  Cu12  1  0.81685000  0.63061000  0.99774000  1.0
  Cu  Cu13  1  0.21339000  0.10478000  0.42584000  1.0
  Cu  Cu14  1  0.71399000  0.62353000  0.04052000  1.0
  Cu  Cu15  1  0.68233000  0.58296000  0.44877000  1.0
  Cu  Cu16  1  0.19989000  0.39154000  0.59763000  1.0
  Cu  Cu17  1  0.09988000  0.42930000  0.60444000  1.0
  H  H18  1  0.58356000  0.48724000  0.57028000  1.0
  H  H19  1  0.51578000  0.44453000  0.61831000  1.0
  H  H20  1  0.63154000  0.61839000  0.54634000  1.0
  H  H21  1  0.58866000  0.58770000  0.56841000  1.0
  H  H22  1  0.57984000  0.62324000  0.52592000  1.0
  H  H23  1  0.85466000  0.65041000  0.44542000  1.0
  H  H24  1  0.87491000  0.61902000  0.48649000  1.0
  H  H25  1  0.87860000  0.66417000  0.47277000  1.0
  H  H26  1  0.71966000  0.67533000  0.53052000  1.0
  H  H27  1  0.74868000  0.64195000  0.56635000  1.0
  H  H28  1  0.70217000  0.63128000  0.54975000  1.0
  H  H29  1  0.25588000  0.45068000  0.67103000  1.0
  H  H30  1  0.30338000  0.47448000  0.64732000  1.0
  H  H31  1  0.30791000  0.42978000  0.67940000  1.0
  H  H32  1  0.06641000  0.50086000  0.57344000  1.0
  H  H33  1  0.05988000  0.52997000  0.58942000  1.0
  H  H34  1  0.03198000  0.48894000  0.61047000  1.0
  H  H35  1  0.18776000  0.43845000  0.70293000  1.0
  H  H36  1  0.15308000  0.46785000  0.70789000  1.0
  H  H37  1  0.20244000  0.48316000  0.68197000  1.0
  H  H38  1  0.93582000  0.63542000  0.56958000  1.0
  H  H39  1  0.84808000  0.71267000  0.56324000  1.0
  H  H40  1  0.88318000  0.61819000  0.54104000  1.0
  H  H41  1  0.79586000  0.69711000  0.53226000  1.0
  H  H42  1  0.07184000  0.62526000  0.63722000  1.0
  H  H43  1  0.14374000  0.57395000  0.67832000  1.0
  H  H44  1  0.00988000  0.54986000  0.67107000  1.0
  H  H45  1  0.16799000  0.53681000  0.65626000  1.0
  H  H46  1  0.03364000  0.51077000  0.65123000  1.0
  H  H47  1  0.37423000  0.43270000  0.64906000  1.0
  H  H48  1  0.52270000  0.58583000  0.52703000  1.0
  H  H49  1  0.44575000  0.46070000  0.63401000  1.0
  H  H50  1  0.45164000  0.55855000  0.54834000  1.0
  H  H51  1  0.90671000  0.63948000  0.63085000  1.0
  H  H52  1  0.88776000  0.67866000  0.62654000  1.0
  H  H53  1  0.09661000  0.63008000  0.66956000  1.0
  H  H54  1  0.03303000  0.70056000  0.70301000  1.0
  H  H55  1  0.68420000  0.94540000  0.52072000  1.0
  H  H56  1  0.65261000  0.93732000  0.49226000  1.0
  H  H57  1  0.62700000  0.95648000  0.51505000  1.0
  H  H58  1  0.68312000  0.08750000  0.38401000  1.0
  H  H59  1  0.62652000  0.07893000  0.39658000  1.0
  H  H60  1  0.75389000  0.11745000  0.37233000  1.0
  H  H61  1  0.73904000  0.90657000  0.52075000  1.0
  H  H62  1  0.73715000  0.89850000  0.56424000  1.0
  H  H63  1  0.77600000  0.87638000  0.55240000  1.0
  H  H64  1  0.92024000  0.94779000  0.52939000  1.0
  H  H65  1  0.71318000  0.61295000  0.89699000  1.0
  H  H66  1  0.75012000  0.64344000  0.86526000  1.0
  H  H67  1  0.26555000  0.97327000  0.46012000  1.0
  H  H68  1  0.32226000  0.97434000  0.46956000  1.0
  H  H69  1  0.30413000  0.99692000  0.42577000  1.0
  H  H70  1  0.02754000  0.00383000  0.49494000  1.0
  H  H71  1  0.19157000  0.95672000  0.45429000  1.0
  H  H72  1  0.15752000  0.92232000  0.48433000  1.0
  H  H73  1  0.20380000  0.93647000  0.49911000  1.0
  H  H74  1  0.28999000  0.54047000  0.94097000  1.0
  H  H75  1  0.29050000  0.50544000  0.93255000  1.0
  H  H76  1  0.34051000  0.51864000  0.94406000  1.0
  H  H77  1  0.22039000  0.52449000  0.90671000  1.0
  H  H78  1  0.21645000  0.56598000  0.90352000  1.0
  H  H79  1  0.18137000  0.55550000  0.87856000  1.0
  H  H80  1  0.03874000  0.51546000  0.96481000  1.0
  H  H81  1  0.92513000  0.58477000  0.78991000  1.0
  H  H82  1  0.92953000  0.57776000  0.83110000  1.0
  H  H83  1  0.84317000  0.55568000  0.85737000  1.0
  H  H84  1  0.87824000  0.66178000  0.81123000  1.0
  H  H85  1  0.81409000  0.55699000  0.90781000  1.0
  H  H86  1  0.88950000  0.78100000  0.71402000  1.0
  H  H87  1  0.90449000  0.82305000  0.68668000  1.0
  H  H88  1  0.81194000  0.84390000  0.66663000  1.0
  H  H89  1  0.90417000  0.82550000  0.60516000  1.0
  H  H90  1  0.88925000  0.88231000  0.55641000  1.0
  H  H91  1  0.04957000  0.84271000  0.63428000  1.0
  H  H92  1  0.08075000  0.80787000  0.63877000  1.0
  H  H93  1  0.12938000  0.84823000  0.58458000  1.0
  H  H94  1  0.99828000  0.88570000  0.55917000  1.0
  H  H95  1  0.15823000  0.90581000  0.54823000  1.0
  H  H96  1  0.02664000  0.94277000  0.51946000  1.0
  H  H97  1  0.01782000  0.70463000  0.81140000  1.0
  H  H98  1  0.00690000  0.66585000  0.84773000  1.0
  H  H99  1  0.07692000  0.61319000  0.82305000  1.0
  H  H100  1  0.10180000  0.55897000  0.87104000  1.0
  H  H101  1  0.37084000  0.03199000  0.41711000  1.0
  H  H102  1  0.58130000  0.97309000  0.46249000  1.0
  H  H103  1  0.45024000  0.02685000  0.41880000  1.0
  H  H104  1  0.50243000  0.97775000  0.46686000  1.0
  H  H105  1  0.39481000  0.45113000  0.04094000  1.0
  H  H106  1  0.52092000  0.51903000  0.98438000  1.0
  H  H107  1  0.66213000  0.09530000  0.41705000  1.0
  H  H108  1  0.89022000  0.05102000  0.49226000  1.0
  H  H109  1  0.89323000  0.09572000  0.47884000  1.0
  H  H110  1  0.92004000  0.07955000  0.45371000  1.0
  H  H111  1  0.78336000  0.15327000  0.36928000  1.0
  H  H112  1  0.73798000  0.13472000  0.39931000  1.0
  H  H113  1  0.90592000  0.99006000  0.52105000  1.0
  H  H114  1  0.90367000  0.95470000  0.56408000  1.0
  H  H115  1  0.63941000  0.59613000  0.93547000  1.0
  H  H116  1  0.64484000  0.64081000  0.92215000  1.0
  H  H117  1  0.59227000  0.61930000  0.93672000  1.0
  H  H118  1  0.64788000  0.54891000  0.08153000  1.0
  H  H119  1  0.59159000  0.56106000  0.07317000  1.0
  H  H120  1  0.88643000  0.59230000  0.03621000  1.0
  H  H121  1  0.87853000  0.54705000  0.05275000  1.0
  H  H122  1  0.89637000  0.56293000  0.08046000  1.0
  H  H123  1  0.71475000  0.65591000  0.88980000  1.0
  H  H124  1  0.88212000  0.59302000  0.98112000  1.0
  H  H125  1  0.89597000  0.62718000  0.93876000  1.0
  H  H126  1  0.88968000  0.58388000  0.94684000  1.0
  H  H127  1  0.31867000  0.09541000  0.48012000  1.0
  H  H128  1  0.29272000  0.12178000  0.43968000  1.0
  H  H129  1  0.34718000  0.10503000  0.44140000  1.0
  H  H130  1  0.06033000  0.02991000  0.50618000  1.0
  H  H131  1  0.05190000  0.98558000  0.53681000  1.0
  H  H132  1  0.23969000  0.12825000  0.47752000  1.0
  H  H133  1  0.20976000  0.15877000  0.48463000  1.0
  H  H134  1  0.22156000  0.16700000  0.44168000  1.0
  H  H135  1  0.04447000  0.09542000  0.45930000  1.0
  H  H136  1  0.04121000  0.13719000  0.45492000  1.0
  H  H137  1  0.04175000  0.09930000  0.49694000  1.0
  H  H138  1  0.28278000  0.44840000  0.09112000  1.0
  H  H139  1  0.34001000  0.45274000  0.08103000  1.0
  H  H140  1  0.31131000  0.41476000  0.08811000  1.0
  H  H141  1  0.05269000  0.45783000  0.05802000  1.0
  H  H142  1  0.05866000  0.47455000  0.08673000  1.0
  H  H143  1  0.04280000  0.43042000  0.10298000  1.0
  H  H144  1  0.23827000  0.39992000  0.12206000  1.0
  H  H145  1  0.19751000  0.36804000  0.14585000  1.0
  H  H146  1  0.20941000  0.40103000  0.15649000  1.0
  H  H147  1  0.06004000  0.51047000  0.00420000  1.0
  H  H148  1  0.05355000  0.55252000  0.96816000  1.0
  H  H149  1  0.79779000  0.22515000  0.40139000  1.0
  H  H150  1  0.93218000  0.20091000  0.39534000  1.0
  H  H151  1  0.77713000  0.16529000  0.42325000  1.0
  H  H152  1  0.91183000  0.14144000  0.41530000  1.0
  H  H153  1  0.84959000  0.66321000  0.86167000  1.0
  H  H154  1  0.79558000  0.90024000  0.61763000  1.0
  H  H155  1  0.88575000  0.45505000  0.16709000  1.0
  H  H156  1  0.85550000  0.49740000  0.11217000  1.0
  H  H157  1  0.02271000  0.34076000  0.27499000  1.0
  H  H158  1  0.00722000  0.36906000  0.23344000  1.0
  H  H159  1  0.10073000  0.34244000  0.23087000  1.0
  H  H160  1  0.06332000  0.44532000  0.20023000  1.0
  H  H161  1  0.12934000  0.36108000  0.17337000  1.0
  H  H162  1  0.09253000  0.46454000  0.14249000  1.0
  H  H163  1  0.16277000  0.20110000  0.44285000  1.0
  H  H164  1  0.05865000  0.14023000  0.51169000  1.0
  H  H165  1  0.08412000  0.66023000  0.88545000  1.0
  H  H166  1  0.10929000  0.60608000  0.93365000  1.0
  H  H167  1  0.59928000  0.06948000  0.45896000  1.0
  H  H168  1  0.51198000  0.09743000  0.43569000  1.0
  H  H169  1  0.37145000  0.03816000  0.50915000  1.0
  H  H170  1  0.46138000  0.05588000  0.51082000  1.0
  H  H171  1  0.34132000  0.55198000  0.98282000  1.0
  H  H172  1  0.53886000  0.59702000  0.03114000  1.0
  H  H173  1  0.44695000  0.59444000  0.01885000  1.0
  H  H174  1  0.59296000  0.54364000  0.98251000  1.0
  H  H175  1  0.47315000  0.46756000  0.06691000  1.0
  H  H176  1  0.41318000  0.57682000  0.98068000  1.0
  H  H177  1  0.91630000  0.38224000  0.35506000  1.0
  H  H178  1  0.62958000  0.58872000  0.07806000  1.0
  H  H179  1  0.69983000  0.56857000  0.10675000  1.0
  H  H180  1  0.73871000  0.57646000  0.13144000  1.0
  H  H181  1  0.73094000  0.53354000  0.13840000  1.0
  H  H182  1  0.87770000  0.23907000  0.43529000  1.0
  H  H183  1  0.84903000  0.27573000  0.40611000  1.0
  H  H184  1  0.91324000  0.48357000  0.24123000  1.0
  H  H185  1  0.93942000  0.47920000  0.20850000  1.0
  H  H186  1  0.83422000  0.51074000  0.21384000  1.0
  H  H187  1  0.80509000  0.55385000  0.15896000  1.0
  H  H188  1  0.03959000  0.25291000  0.41448000  1.0
  H  H189  1  0.06469000  0.29035000  0.40967000  1.0
  H  H190  1  0.13036000  0.25199000  0.43845000  1.0
  H  H191  1  0.02291000  0.19261000  0.50244000  1.0
  H  H192  1  0.07798000  0.46314000  0.34329000  1.0
  H  H193  1  0.87679000  0.45136000  0.39113000  1.0
  H  H194  1  0.06644000  0.48115000  0.36856000  1.0
  H  H195  1  0.04476000  0.40510000  0.45008000  1.0
  H  H196  1  0.15638000  0.46787000  0.39765000  1.0
  H  H197  1  0.18759000  0.39635000  0.50479000  1.0
  H  H198  1  0.91350000  0.48125000  0.39247000  1.0
  H  H199  1  0.81384000  0.44654000  0.42959000  1.0
  H  H200  1  0.06063000  0.41072000  0.50024000  1.0
  H  H201  1  0.17305000  0.47320000  0.44795000  1.0
  H  H202  1  0.61820000  0.49869000  0.51417000  1.0
  H  H203  1  0.62531000  0.53197000  0.47033000  1.0
  H  H204  1  0.57301000  0.52565000  0.49204000  1.0
  H  H205  1  0.69727000  0.50547000  0.49235000  1.0
  H  H206  1  0.73812000  0.47892000  0.48811000  1.0
  H  H207  1  0.70358000  0.50613000  0.45254000  1.0
  H  H208  1  0.85376000  0.60907000  0.42212000  1.0
  H  H209  1  0.87106000  0.57234000  0.41956000  1.0
  H  H210  1  0.87684000  0.57329000  0.45907000  1.0
  H  H211  1  0.28691000  0.44624000  0.53740000  1.0
  H  H212  1  0.28493000  0.40064000  0.56399000  1.0
  H  H213  1  0.33491000  0.42387000  0.56052000  1.0
  H  H214  1  0.22596000  0.42841000  0.50044000  1.0
  H  H215  1  0.21961000  0.38979000  0.54105000  1.0
  H  H216  1  0.05219000  0.47267000  0.54150000  1.0
  H  H217  1  0.03742000  0.43773000  0.53484000  1.0
  H  H218  1  0.05369000  0.47854000  0.49905000  1.0
  H  H219  1  0.92759000  0.47455000  0.46518000  1.0
  H  H220  1  0.77122000  0.48931000  0.43471000  1.0
  H  H221  1  0.88377000  0.51442000  0.47502000  1.0
  H  H222  1  0.33564000  0.49046000  0.54414000  1.0
  H  H223  1  0.42246000  0.50831000  0.51190000  1.0
  C  C224  1  0.30598000  0.44322000  0.60675000  1.0
  C  C225  1  0.55491000  0.50289000  0.56595000  1.0
  C  C226  1  0.51416000  0.48708000  0.57776000  1.0
  C  C227  1  0.40090000  0.49919000  0.55493000  1.0
  C  C228  1  0.34952000  0.45962000  0.59773000  1.0
  C  C229  1  0.43245000  0.49107000  0.58022000  1.0
  C  C230  1  0.47632000  0.50708000  0.57108000  1.0
  C  C231  1  0.62262000  0.54887000  0.50726000  1.0
  C  C232  1  0.38103000  0.45152000  0.62281000  1.0
  C  C233  1  0.60047000  0.55460000  0.53082000  1.0
  C  C234  1  0.62023000  0.58369000  0.52789000  1.0
  C  C235  1  0.81446000  0.64195000  0.48804000  1.0
  C  C236  1  0.60401000  0.60446000  0.54310000  1.0
  C  C237  1  0.85839000  0.64401000  0.47232000  1.0
  C  C238  1  0.80460000  0.64680000  0.51539000  1.0
  C  C239  1  0.75935000  0.64376000  0.51839000  1.0
  C  C240  1  0.73081000  0.64850000  0.54270000  1.0
  C  C241  1  0.27824000  0.43906000  0.63307000  1.0
  C  C242  1  0.10064000  0.48676000  0.61936000  1.0
  C  C243  1  0.28699000  0.44917000  0.65926000  1.0
  C  C244  1  0.06230000  0.50263000  0.59689000  1.0
  C  C245  1  0.11794000  0.49525000  0.64261000  1.0
  C  C246  1  0.14983000  0.47087000  0.65905000  1.0
  C  C247  1  0.17481000  0.46481000  0.68976000  1.0
  C  C248  1  0.89524000  0.67454000  0.56960000  1.0
  C  C249  1  0.90494000  0.64837000  0.56245000  1.0
  C  C250  1  0.85558000  0.69193000  0.55856000  1.0
  C  C251  1  0.87503000  0.63892000  0.54557000  1.0
  C  C252  1  0.82577000  0.68279000  0.54118000  1.0
  C  C253  1  0.83521000  0.65607000  0.53465000  1.0
  C  C254  1  0.07504000  0.56514000  0.67550000  1.0
  C  C255  1  0.11969000  0.56061000  0.67185000  1.0
  C  C256  1  0.04436000  0.54739000  0.66736000  1.0
  C  C257  1  0.13337000  0.53922000  0.65949000  1.0
  C  C258  1  0.05803000  0.52527000  0.65581000  1.0
  C  C259  1  0.10275000  0.52087000  0.65186000  1.0
  C  C260  1  0.42209000  0.46719000  0.61415000  1.0
  C  C261  1  0.52103000  0.55833000  0.54194000  1.0
  C  C262  1  0.48030000  0.54274000  0.55369000  1.0
  C  C263  1  0.55856000  0.53853000  0.54758000  1.0
  C  C264  1  0.95677000  0.66648000  0.64054000  1.0
  C  C265  1  0.99127000  0.64454000  0.64361000  1.0
  C  C266  1  0.02695000  0.64038000  0.66450000  1.0
  C  C267  1  0.02604000  0.65562000  0.68519000  1.0
  C  C268  1  0.99385000  0.68043000  0.68042000  1.0
  C  C269  1  0.95994000  0.68661000  0.65657000  1.0
  C  C270  1  0.91620000  0.66666667  0.62127333  1.0
  C  C271  1  0.06645000  0.62040000  0.66378000  1.0
  C  C272  1  0.94162000  0.78507000  0.67941000  1.0
  C  C273  1  0.97452000  0.80822000  0.65867000  1.0
  C  C274  1  0.01192000  0.79635000  0.64944000  1.0
  C  C275  1  0.01558000  0.76136000  0.65994000  1.0
  C  C276  1  0.98538000  0.73715000  0.68387000  1.0
  C  C277  1  0.94745000  0.74957000  0.69258000  1.0
  C  C278  1  0.95129000  0.62889000  0.79021000  1.0
  C  C279  1  0.97441000  0.63688000  0.81217000  1.0
  C  C280  1  0.00122000  0.66615000  0.79864000  1.0
  C  C281  1  0.00773000  0.68595000  0.76301000  1.0
  C  C282  1  0.98604000  0.67771000  0.74026000  1.0
  C  C283  1  0.95588000  0.64987000  0.75445000  1.0
  C  C284  1  0.99725000  0.69883000  0.70163000  1.0
  C  C285  1  0.65737000  0.95520000  0.50212000  1.0
  C  C286  1  0.67001000  0.98943000  0.47323000  1.0
  C  C287  1  0.64400000  0.01827000  0.45699000  1.0
  C  C288  1  0.67156000  0.04280000  0.43233000  1.0
  C  C289  1  0.66004000  0.07829000  0.40594000  1.0
  C  C290  1  0.75885000  0.90100000  0.54329000  1.0
  C  C291  1  0.79123000  0.92898000  0.53476000  1.0
  C  C292  1  0.82763000  0.92692000  0.55342000  1.0
  C  C293  1  0.85187000  0.95592000  0.53204000  1.0
  C  C294  1  0.89827000  0.96251000  0.53696000  1.0
  C  C295  1  0.28696000  0.02055000  0.45515000  1.0
  C  C296  1  0.09640000  0.99547000  0.49577000  1.0
  C  C297  1  0.29535000  0.98939000  0.45247000  1.0
  C  C298  1  0.11289000  0.96314000  0.50539000  1.0
  C  C299  1  0.14885000  0.96988000  0.48375000  1.0
  C  C300  1  0.17711000  0.94472000  0.48032000  1.0
  C  C301  1  0.30467000  0.51530000  0.94846000  1.0
  C  C302  1  0.29418000  0.49149000  0.98515000  1.0
  C  C303  1  0.19770000  0.54499000  0.90347000  1.0
  C  C304  1  0.16480000  0.53160000  0.93192000  1.0
  C  C305  1  0.12658000  0.54722000  0.93339000  1.0
  C  C306  1  0.10741000  0.52406000  0.96436000  1.0
  C  C307  1  0.06214000  0.52577000  0.97604000  1.0
  C  C308  1  0.92098000  0.59798000  0.80488000  1.0
  C  C309  1  0.86348000  0.60846000  0.83111000  1.0
  C  C310  1  0.84517000  0.57901000  0.85851000  1.0
  C  C311  1  0.86497000  0.63876000  0.83251000  1.0
  C  C312  1  0.82876000  0.57977000  0.88711000  1.0
  C  C313  1  0.84874000  0.63951000  0.86114000  1.0
  C  C314  1  0.83034000  0.61006000  0.88845000  1.0
  C  C315  1  0.89989000  0.79824000  0.68728000  1.0
  C  C316  1  0.85985000  0.83110000  0.63951000  1.0
  C  C317  1  0.82939000  0.85252000  0.64278000  1.0
  C  C318  1  0.88139000  0.84216000  0.60819000  1.0
  C  C319  1  0.82036000  0.88455000  0.61503000  1.0
  C  C320  1  0.87308000  0.87451000  0.58061000  1.0
  C  C321  1  0.84219000  0.89573000  0.58383000  1.0
  C  C322  1  0.04888000  0.82076000  0.62943000  1.0
  C  C323  1  0.06180000  0.86304000  0.57467000  1.0
  C  C324  1  0.10696000  0.86903000  0.57083000  1.0
  C  C325  1  0.03320000  0.89019000  0.55672000  1.0
  C  C326  1  0.12328000  0.90189000  0.54970000  1.0
  C  C327  1  0.04956000  0.92286000  0.53439000  1.0
  C  C328  1  0.09488000  0.92909000  0.53053000  1.0
  C  C329  1  0.02273000  0.67686000  0.82208000  1.0
  C  C330  1  0.07831000  0.64033000  0.85104000  1.0
  C  C331  1  0.08334000  0.61155000  0.84728000  1.0
  C  C332  1  0.09770000  0.58086000  0.87452000  1.0
  C  C333  1  0.10763000  0.57870000  0.90576000  1.0
  C  C334  1  0.38808000  0.03180000  0.43794000  1.0
  C  C335  1  0.43343000  0.02915000  0.43875000  1.0
  C  C336  1  0.56839000  0.99501000  0.46324000  1.0
  C  C337  1  0.52327000  0.99780000  0.46542000  1.0
  C  C338  1  0.59633000  0.02070000  0.46095000  1.0
  C  C339  1  0.50508000  0.02648000  0.46502000  1.0
  C  C340  1  0.31759000  0.03944000  0.46132000  1.0
  C  C341  1  0.31964000  0.48481000  0.01294000  1.0
  C  C342  1  0.29711000  0.45904000  0.04062000  1.0
  C  C343  1  0.35969000  0.48362000  0.56381000  1.0
  C  C344  1  0.36538000  0.03507000  0.46325000  1.0
  C  C345  1  0.45702000  0.02987000  0.46479000  1.0
  C  C346  1  0.08736000  0.63800000  0.88247000  1.0
  C  C347  1  0.10162000  0.60726000  0.90979000  1.0
  C  C348  1  0.99169000  0.38651000  0.26963000  1.0
  C  C349  1  0.85048000  0.08266000  0.44964000  1.0
  C  C350  1  0.89102000  0.07701000  0.46976000  1.0
  C  C351  1  0.82939000  0.11359000  0.42961000  1.0
  C  C352  1  0.79654000  0.10529000  0.41403000  1.0
  C  C353  1  0.76613000  0.12921000  0.38715000  1.0
  C  C354  1  0.62813000  0.61665000  0.94040000  1.0
  C  C355  1  0.63918000  0.60713000  0.97609000  1.0
  C  C356  1  0.61435000  0.58722000  0.00521000  1.0
  C  C357  1  0.63668000  0.58887000  0.03093000  1.0
  C  C358  1  0.82866000  0.57102000  0.06677000  1.0
  C  C359  1  0.62557000  0.57085000  0.06810000  1.0
  C  C360  1  0.87535000  0.56807000  0.05862000  1.0
  C  C361  1  0.73483000  0.63508000  0.89059000  1.0
  C  C362  1  0.76868000  0.62434000  0.91747000  1.0
  C  C363  1  0.80975000  0.61174000  0.91712000  1.0
  C  C364  1  0.83001000  0.60938000  0.94546000  1.0
  C  C365  1  0.80814000  0.55370000  0.09850000  1.0
  C  C366  1  0.76663000  0.56772000  0.09288000  1.0
  C  C367  1  0.87738000  0.60298000  0.95352000  1.0
  C  C368  1  0.31451000  0.09965000  0.45397000  1.0
  C  C369  1  0.29511000  0.06821000  0.45624000  1.0
  C  C370  1  0.05654000  0.00407000  0.50930000  1.0
  C  C371  1  0.21292000  0.14716000  0.46809000  1.0
  C  C372  1  0.17144000  0.12983000  0.46786000  1.0
  C  C373  1  0.12924000  0.13561000  0.47591000  1.0
  C  C374  1  0.10364000  0.11291000  0.47086000  1.0
  C  C375  1  0.05483000  0.11124000  0.47052000  1.0
  C  C376  1  0.11026000  0.44183000  0.08853000  1.0
  C  C377  1  0.30874000  0.44274000  0.07737000  1.0
  C  C378  1  0.06323000  0.45178000  0.08378000  1.0
  C  C379  1  0.13214000  0.42585000  0.11927000  1.0
  C  C380  1  0.17224000  0.41730000  0.11109000  1.0
  C  C381  1  0.20636000  0.39527000  0.13543000  1.0
  C  C382  1  0.86657000  0.21709000  0.39747000  1.0
  C  C383  1  0.82278000  0.20671000  0.40513000  1.0
  C  C384  1  0.89847000  0.19300000  0.40207000  1.0
  C  C385  1  0.81113000  0.17263000  0.41741000  1.0
  C  C386  1  0.88676000  0.15901000  0.41370000  1.0
  C  C387  1  0.84286000  0.14852000  0.42121000  1.0
  C  C388  1  0.86854000  0.47679000  0.16524000  1.0
  C  C389  1  0.85123000  0.50091000  0.13402000  1.0
  C  C390  1  0.82755000  0.52872000  0.13136000  1.0
  C  C391  1  0.02124000  0.36842000  0.25644000  1.0
  C  C392  1  0.07936000  0.39247000  0.21935000  1.0
  C  C393  1  0.09883000  0.36905000  0.21158000  1.0
  C  C394  1  0.07741000  0.42693000  0.19423000  1.0
  C  C395  1  0.11548000  0.37983000  0.17891000  1.0
  C  C396  1  0.09409000  0.43779000  0.16147000  1.0
  C  C397  1  0.11362000  0.41435000  0.15366000  1.0
  C  C398  1  0.13370000  0.19806000  0.45780000  1.0
  C  C399  1  0.07440000  0.16439000  0.49515000  1.0
  C  C400  1  0.11324000  0.16605000  0.47744000  1.0
  C  C401  1  0.57830000  0.04934000  0.46077000  1.0
  C  C402  1  0.53293000  0.05256000  0.46237000  1.0
  C  C403  1  0.38866000  0.03573000  0.48940000  1.0
  C  C404  1  0.43431000  0.03293000  0.49045000  1.0
  C  C405  1  0.36850000  0.53521000  0.99533000  1.0
  C  C406  1  0.40940000  0.54936000  0.99433000  1.0
  C  C407  1  0.53521000  0.57968000  0.02126000  1.0
  C  C408  1  0.49396000  0.56579000  0.02236000  1.0
  C  C409  1  0.56558000  0.54992000  0.99371000  1.0
  C  C410  1  0.52455000  0.53584000  0.99487000  1.0
  C  C411  1  0.39852000  0.47859000  0.02820000  1.0
  C  C412  1  0.43957000  0.49262000  0.02744000  1.0
  C  C413  1  0.36271000  0.49975000  0.01245000  1.0
  C  C414  1  0.44523000  0.52829000  0.01041000  1.0
  C  C415  1  0.57124000  0.57170000  0.00715000  1.0
  C  C416  1  0.48843000  0.54358000  0.00918000  1.0
  C  C417  1  0.96745000  0.41496000  0.24642000  1.0
  C  C418  1  0.94231000  0.43353000  0.25781000  1.0
  C  C419  1  0.93841000  0.42180000  0.29312000  1.0
  C  C420  1  0.96083000  0.39198000  0.31746000  1.0
  C  C421  1  0.98931000  0.37556000  0.30491000  1.0
  C  C422  1  0.99430000  0.28705000  0.41782000  1.0
  C  C423  1  0.95781000  0.26696000  0.42067000  1.0
  C  C424  1  0.91929000  0.28247000  0.40337000  1.0
  C  C425  1  0.91916000  0.31806000  0.38062000  1.0
  C  C426  1  0.95387000  0.33932000  0.38058000  1.0
  C  C427  1  0.98996000  0.32279000  0.40223000  1.0
  C  C428  1  0.95174000  0.37850000  0.35600000  1.0
  C  C429  1  0.73202000  0.56105000  0.11905000  1.0
  C  C430  1  0.87895000  0.26083000  0.40854000  1.0
  C  C431  1  0.91853000  0.46526000  0.23190000  1.0
  C  C432  1  0.86269000  0.48020000  0.19419000  1.0
  C  C433  1  0.83918000  0.50798000  0.19161000  1.0
  C  C434  1  0.82215000  0.53226000  0.16036000  1.0
  C  C435  1  0.03921000  0.27100000  0.42475000  1.0
  C  C436  1  0.07323000  0.22610000  0.46879000  1.0
  C  C437  1  0.11480000  0.22756000  0.45470000  1.0
  C  C438  1  0.05409000  0.19422000  0.49023000  1.0
  C  C439  1  0.93665000  0.40957000  0.38950000  1.0
  C  C440  1  0.96670000  0.40220000  0.36975000  1.0
  C  C441  1  0.00775000  0.41962000  0.36102000  1.0
  C  C442  1  0.01869000  0.44221000  0.37320000  1.0
  C  C443  1  0.98642000  0.45145000  0.38957000  1.0
  C  C444  1  0.94446000  0.43693000  0.39539000  1.0
  C  C445  1  0.90677000  0.45335000  0.40377000  1.0
  C  C446  1  0.06487000  0.45634000  0.36881000  1.0
  C  C447  1  0.09893000  0.43669000  0.42010000  1.0
  C  C448  1  0.87392000  0.45804000  0.44637000  1.0
  C  C449  1  0.82912000  0.46135000  0.43952000  1.0
  C  C450  1  0.07204000  0.42073000  0.44924000  1.0
  C  C451  1  0.13496000  0.45600000  0.41976000  1.0
  C  C452  1  0.08098000  0.42417000  0.47766000  1.0
  C  C453  1  0.14430000  0.45906000  0.44832000  1.0
  C  C454  1  0.11749000  0.44306000  0.47753000  1.0
  C  C455  1  0.60900000  0.52503000  0.49499000  1.0
  C  C456  1  0.72140000  0.50388000  0.47477000  1.0
  C  C457  1  0.75321000  0.53278000  0.46289000  1.0
  C  C458  1  0.79811000  0.53240000  0.45741000  1.0
  C  C459  1  0.81154000  0.56552000  0.44795000  1.0
  C  C460  1  0.85607000  0.58085000  0.43653000  1.0
  C  C461  1  0.29870000  0.42449000  0.56150000  1.0
  C  C462  1  0.28320000  0.42884000  0.59056000  1.0
  C  C463  1  0.20222000  0.40892000  0.51811000  1.0
  C  C464  1  0.16773000  0.42618000  0.52772000  1.0
  C  C465  1  0.13099000  0.44234000  0.50915000  1.0
  C  C466  1  0.10584000  0.44858000  0.53127000  1.0
  C  C467  1  0.05944000  0.46009000  0.52631000  1.0
  C  C468  1  0.89317000  0.47730000  0.45932000  1.0
  C  C469  1  0.80469000  0.48552000  0.44303000  1.0
  C  C470  1  0.86818000  0.50035000  0.46445000  1.0
  C  C471  1  0.82384000  0.50538000  0.45555000  1.0
  N  N472  1  0.65324000  0.57319000  0.49147000  1.0
  N  N473  1  0.24159000  0.42306000  0.63227000  1.0
  N  N474  1  0.65202000  0.59425000  0.50386000  1.0
  N  N475  1  0.77728000  0.63665000  0.47582000  1.0
  N  N476  1  0.74384000  0.63792000  0.49398000  1.0
  N  N477  1  0.12125000  0.45900000  0.62235000  1.0
  N  N478  1  0.15135000  0.44986000  0.64603000  1.0
  N  N479  1  0.71001000  0.99683000  0.45871000  1.0
  N  N480  1  0.71107000  0.02897000  0.43434000  1.0
  N  N481  1  0.79850000  0.07191000  0.42418000  1.0
  N  N482  1  0.79392000  0.95747000  0.50427000  1.0
  N  N483  1  0.83038000  0.97406000  0.50253000  1.0
  N  N484  1  0.24905000  0.03767000  0.44646000  1.0
  N  N485  1  0.12111000  0.01915000  0.47007000  1.0
  N  N486  1  0.15314000  0.00370000  0.46339000  1.0
  N  N487  1  0.25900000  0.47078000  0.99608000  1.0
  N  N488  1  0.26073000  0.45124000  0.02943000  1.0
  N  N489  1  0.16758000  0.50098000  0.96017000  1.0
  N  N490  1  0.13281000  0.49616000  0.97975000  1.0
  N  N491  1  0.83118000  0.05808000  0.44557000  1.0
  N  N492  1  0.67393000  0.61954000  0.98442000  1.0
  N  N493  1  0.67266000  0.60837000  0.01748000  1.0
  N  N494  1  0.80076000  0.59379000  0.04409000  1.0
  N  N495  1  0.76336000  0.59182000  0.05996000  1.0
  N  N496  1  0.76514000  0.62907000  0.94448000  1.0
  N  N497  1  0.80215000  0.62012000  0.96143000  1.0
  N  N498  1  0.25391000  0.06631000  0.44729000  1.0
  N  N499  1  0.16988000  0.10682000  0.45726000  1.0
  N  N500  1  0.12923000  0.09602000  0.45990000  1.0
  N  N501  1  0.13600000  0.44225000  0.06393000  1.0
  N  N502  1  0.17340000  0.42738000  0.07770000  1.0
  N  N503  1  0.74154000  0.56415000  0.45620000  1.0
  N  N504  1  0.77663000  0.58363000  0.44790000  1.0
  N  N505  1  0.24462000  0.41695000  0.60669000  1.0
  N  N506  1  0.16394000  0.42271000  0.55891000  1.0
  N  N507  1  0.12679000  0.43654000  0.56111000  1.0
  Cl  Cl508  1  0.98948000  0.62125000  0.62170000  1.0
  Cl  Cl509  1  0.92087000  0.64160000  0.72849000  1.0
  Cl  Cl510  1  0.06530000  0.64240000  0.71792000  1.0
  Cl  Cl511  1  0.92024000  0.71838000  0.64688000  1.0
  Cl  Cl512  1  0.96838000  0.85263000  0.64314000  1.0
  Cl  Cl513  1  0.05877000  0.74792000  0.64285000  1.0
  Cl  Cl514  1  0.90531000  0.72135000  0.71833000  1.0
  Cl  Cl515  1  0.96940000  0.61025000  0.85699000  1.0
  Cl  Cl516  1  0.04393000  0.72151000  0.74711000  1.0
  Cl  Cl517  1  0.96826000  0.42754000  0.20247000  1.0
  Cl  Cl518  1  0.02477000  0.34254000  0.33207000  1.0
  Cl  Cl519  1  0.96143000  0.22198000  0.44489000  1.0
  Cl  Cl520  1  0.87542000  0.33524000  0.35153000  1.0
  Cl  Cl521  1  0.90384000  0.44447000  0.30678000  1.0
  Cl  Cl522  1  0.03140000  0.34504000  0.41004000  1.0
  Cl  Cl523  1  0.88817000  0.38508000  0.40687000  1.0
  Cl  Cl524  1  0.04687000  0.41269000  0.33599000  1.0
  Cl  Cl525  1  0.99821000  0.48091000  0.40364000  1.0
  O  O526  1  0.92550000  0.68416000  0.58582000  1.0
  O  O527  1  0.06130000  0.58554000  0.68865000  1.0
  O  O528  1  0.87683000  0.60825000  0.80192000  1.0
  O  O529  1  0.86597000  0.79841000  0.66618000  1.0
  O  O530  1  0.04547000  0.83038000  0.59464000  1.0
  O  O531  1  0.06833000  0.67146000  0.82323000  1.0
  O  O532  1  0.87791000  0.25116000  0.38316000  1.0
  O  O533  1  0.06417000  0.38192000  0.25200000  1.0
  O  O534  1  0.51615000  0.08164000  0.46035000  1.0
  O  O535  1  0.45610000  0.03173000  0.51734000  1.0
  O  O536  1  0.45965000  0.57319000  0.03733000  1.0
  O  O537  1  0.47392000  0.47133000  0.04336000  1.0
  O  O538  1  0.51135000  0.45220000  0.59389000  1.0
  O  O539  1  0.87763000  0.45523000  0.22538000  1.0
  O  O540  1  0.05004000  0.25572000  0.45974000  1.0
  O  O541  1  0.09242000  0.43097000  0.39312000  1.0
  O  O542  1  0.41014000  0.52215000  0.52145000  1.0
  O  O543  1  0.89925000  0.43682000  0.43937000  1.0
