# generated using pymatgen
data_Zn3H99C132N12O13F6
_symmetry_space_group_name_H-M   'P 1'
_cell_length_a   31.95350000
_cell_length_b   36.45348265
_cell_length_c   39.89510000
_cell_angle_alpha   113.02136827
_cell_angle_beta   90.78400000
_cell_angle_gamma   88.26954303
_symmetry_Int_Tables_number   1
_chemical_formula_structural   Zn3H99C132N12O13F6
_chemical_formula_sum   'Zn6 H198 C264 N24 O26 F12'
_cell_volume   42749.92018634
_cell_formula_units_Z   2
loop_
 _symmetry_equiv_pos_site_id
 _symmetry_equiv_pos_as_xyz
  1  'x, y, z'
loop_
 _atom_site_type_symbol
 _atom_site_label
 _atom_site_symmetry_multiplicity
 _atom_site_fract_x
 _atom_site_fract_y
 _atom_site_fract_z
 _atom_site_occupancy
  Zn  Zn0  1  0.06622000  0.30649000  0.70110000  1.0
  Zn  Zn1  1  0.96114000  0.32209000  0.70265000  1.0
  Zn  Zn2  1  0.01617000  0.32031000  0.65108000  1.0
  Zn  Zn3  1  0.06758000  0.64208000  0.32032000  1.0
  Zn  Zn4  1  0.96702000  0.65876000  0.30821000  1.0
  Zn  Zn5  1  0.01279000  0.69139000  0.37037000  1.0
  H  H6  1  0.41873000  0.48483000  0.54911000  1.0
  H  H7  1  0.34015000  0.54151000  0.47149000  1.0
  H  H8  1  0.41589000  0.54462000  0.47460000  1.0
  H  H9  1  0.35080000  0.41965000  0.50652000  1.0
  H  H10  1  0.36990000  0.42674000  0.55108000  1.0
  H  H11  1  0.31626000  0.41414000  0.53801000  1.0
  H  H12  1  0.34240000  0.53284000  0.59725000  1.0
  H  H13  1  0.30863000  0.50117000  0.60684000  1.0
  H  H14  1  0.36394000  0.48889000  0.60159000  1.0
  H  H15  1  0.29591000  0.50108000  0.43636000  1.0
  H  H16  1  0.15763000  0.52031000  0.59835000  1.0
  H  H17  1  0.19067000  0.57659000  0.44077000  1.0
  H  H18  1  0.12058000  0.50329000  0.50516000  1.0
  H  H19  1  0.07892000  0.53932000  0.47710000  1.0
  H  H20  1  0.24456000  0.48963000  0.41987000  1.0
  H  H21  1  0.26687000  0.53460000  0.42070000  1.0
  H  H22  1  0.24098000  0.59891000  0.51615000  1.0
  H  H23  1  0.29341000  0.58256000  0.50570000  1.0
  H  H24  1  0.26274000  0.59605000  0.47388000  1.0
  H  H25  1  0.14698000  0.44409000  0.48993000  1.0
  H  H26  1  0.13872000  0.43611000  0.59105000  1.0
  H  H27  1  0.29394000  0.43925000  0.59349000  1.0
  H  H28  1  0.16753000  0.40896000  0.50629000  1.0
  H  H29  1  0.25868000  0.41142000  0.63049000  1.0
  H  H30  1  0.11849000  0.43384000  0.52393000  1.0
  H  H31  1  0.14547000  0.53194000  0.56066000  1.0
  H  H32  1  0.11302000  0.49808000  0.57105000  1.0
  H  H33  1  0.41541000  0.94735000  0.50169000  1.0
  H  H34  1  0.33641000  0.07450000  0.56632000  1.0
  H  H35  1  0.41219000  0.07407000  0.56615000  1.0
  H  H36  1  0.34387000  0.94861000  0.44650000  1.0
  H  H37  1  0.36513000  0.90365000  0.44907000  1.0
  H  H38  1  0.31084000  0.90835000  0.43821000  1.0
  H  H39  1  0.34090000  0.92611000  0.54449000  1.0
  H  H40  1  0.30594000  0.89318000  0.51378000  1.0
  H  H41  1  0.36084000  0.88978000  0.50240000  1.0
  H  H42  1  0.29627000  0.08139000  0.52470000  1.0
  H  H43  1  0.15367000  0.92415000  0.52942000  1.0
  H  H44  1  0.19145000  0.14039000  0.58321000  1.0
  H  H45  1  0.11777000  0.01523000  0.51340000  1.0
  H  H46  1  0.07892000  0.07774000  0.53582000  1.0
  H  H47  1  0.24647000  0.09486000  0.51354000  1.0
  H  H48  1  0.27009000  0.12598000  0.55581000  1.0
  H  H49  1  0.23386000  0.07258000  0.61129000  1.0
  H  H50  1  0.28730000  0.06830000  0.59973000  1.0
  H  H51  1  0.25960000  0.11539000  0.61060000  1.0
  H  H52  1  0.15118000  0.98758000  0.46181000  1.0
  H  H53  1  0.13445000  0.86833000  0.44126000  1.0
  H  H54  1  0.28868000  0.86420000  0.45732000  1.0
  H  H55  1  0.16336000  0.94014000  0.42877000  1.0
  H  H56  1  0.25372000  0.80436000  0.42034000  1.0
  H  H57  1  0.11461000  0.94794000  0.45258000  1.0
  H  H58  1  0.13303000  0.97191000  0.53636000  1.0
  H  H59  1  0.10939000  0.92850000  0.50289000  1.0
  H  H60  1  0.41357000  0.45800000  0.05168000  1.0
  H  H61  1  0.35511000  0.36874000  0.93267000  1.0
  H  H62  1  0.42997000  0.37221000  0.94124000  1.0
  H  H63  1  0.34162000  0.41396000  0.07112000  1.0
  H  H64  1  0.34829000  0.46461000  0.10209000  1.0
  H  H65  1  0.29716000  0.44304000  0.09164000  1.0
  H  H66  1  0.33704000  0.51024000  0.03455000  1.0
  H  H67  1  0.30094000  0.52159000  0.07044000  1.0
  H  H68  1  0.35569000  0.51500000  0.07868000  1.0
  H  H69  1  0.31028000  0.33157000  0.94363000  1.0
  H  H70  1  0.15457000  0.51114000  0.02501000  1.0
  H  H71  1  0.22324000  0.31690000  0.86299000  1.0
  H  H72  1  0.12794000  0.41071000  0.95673000  1.0
  H  H73  1  0.09952000  0.36638000  0.89878000  1.0
  H  H74  1  0.25879000  0.31426000  0.93871000  1.0
  H  H75  1  0.28873000  0.30676000  0.89869000  1.0
  H  H76  1  0.26448000  0.40085000  0.89055000  1.0
  H  H77  1  0.31167000  0.40408000  0.91436000  1.0
  H  H78  1  0.29934000  0.35810000  0.87688000  1.0
  H  H79  1  0.13866000  0.39361000  0.00296000  1.0
  H  H80  1  0.11964000  0.49647000  0.09221000  1.0
  H  H81  1  0.27334000  0.50462000  0.11111000  1.0
  H  H82  1  0.15671000  0.40491000  0.04784000  1.0
  H  H83  1  0.22794000  0.53792000  0.16194000  1.0
  H  H84  1  0.10951000  0.42881000  0.04049000  1.0
  H  H85  1  0.15019000  0.47044000  0.98304000  1.0
  H  H86  1  0.10966000  0.48044000  0.01689000  1.0
  H  H87  1  0.61508000  0.06318000  0.55365000  1.0
  H  H88  1  0.67248000  0.92652000  0.48422000  1.0
  H  H89  1  0.59807000  0.93718000  0.49301000  1.0
  H  H90  1  0.68838000  0.07317000  0.49990000  1.0
  H  H91  1  0.66934000  0.10875000  0.54282000  1.0
  H  H92  1  0.72346000  0.10661000  0.53047000  1.0
  H  H93  1  0.69567000  0.05294000  0.59946000  1.0
  H  H94  1  0.73589000  0.08510000  0.60023000  1.0
  H  H95  1  0.68191000  0.10110000  0.59960000  1.0
  H  H96  1  0.70631000  0.93265000  0.43983000  1.0
  H  H97  1  0.88976000  0.04001000  0.56872000  1.0
  H  H98  1  0.79920000  0.84697000  0.42120000  1.0
  H  H99  1  0.89882000  0.95556000  0.48009000  1.0
  H  H100  1  0.92515000  0.89060000  0.43961000  1.0
  H  H101  1  0.75359000  0.92455000  0.41562000  1.0
  H  H102  1  0.72809000  0.88280000  0.41876000  1.0
  H  H103  1  0.77305000  0.88604000  0.50365000  1.0
  H  H104  1  0.72468000  0.91210000  0.51235000  1.0
  H  H105  1  0.73128000  0.86738000  0.47152000  1.0
  H  H106  1  0.87534000  0.99954000  0.45869000  1.0
  H  H107  1  0.90676000  0.10459000  0.53852000  1.0
  H  H108  1  0.75930000  0.12774000  0.58091000  1.0
  H  H109  1  0.85341000  0.04741000  0.46734000  1.0
  H  H110  1  0.80595000  0.18358000  0.59817000  1.0
  H  H111  1  0.90657000  0.04252000  0.48063000  1.0
  H  H112  1  0.88645000  0.99052000  0.53714000  1.0
  H  H113  1  0.92426000  0.02285000  0.53028000  1.0
  H  H114  1  0.62006000  0.46521000  0.05101000  1.0
  H  H115  1  0.68217000  0.37068000  0.93482000  1.0
  H  H116  1  0.60782000  0.37201000  0.94369000  1.0
  H  H117  1  0.68714000  0.51686000  0.02791000  1.0
  H  H118  1  0.67262000  0.52563000  0.07379000  1.0
  H  H119  1  0.72522000  0.53324000  0.06256000  1.0
  H  H120  1  0.70430000  0.42778000  0.07328000  1.0
  H  H121  1  0.74042000  0.46536000  0.09437000  1.0
  H  H122  1  0.68508000  0.47734000  0.10000000  1.0
  H  H123  1  0.71970000  0.40509000  0.91293000  1.0
  H  H124  1  0.88423000  0.42775000  0.04914000  1.0
  H  H125  1  0.81459000  0.31995000  0.86456000  1.0
  H  H126  1  0.90427000  0.42167000  0.95354000  1.0
  H  H127  1  0.93384000  0.37620000  0.89644000  1.0
  H  H128  1  0.76482000  0.39912000  0.88660000  1.0
  H  H129  1  0.73305000  0.35674000  0.87826000  1.0
  H  H130  1  0.78517000  0.32255000  0.94444000  1.0
  H  H131  1  0.73180000  0.33716000  0.94832000  1.0
  H  H132  1  0.75393000  0.30983000  0.90390000  1.0
  H  H133  1  0.87414000  0.48038000  0.97311000  1.0
  H  H134  1  0.91219000  0.51956000  0.08216000  1.0
  H  H135  1  0.75968000  0.52534000  0.10606000  1.0
  H  H136  1  0.87056000  0.52401000  0.01289000  1.0
  H  H137  1  0.80541000  0.56658000  0.15330000  1.0
  H  H138  1  0.91765000  0.49385000  0.00464000  1.0
  H  H139  1  0.89791000  0.40964000  0.00273000  1.0
  H  H140  1  0.92706000  0.44935000  0.03528000  1.0
  H  H141  1  0.61660000  0.55194000  0.49509000  1.0
  H  H142  1  0.67591000  0.49508000  0.58064000  1.0
  H  H143  1  0.60122000  0.49486000  0.57060000  1.0
  H  H144  1  0.69542000  0.49872000  0.45421000  1.0
  H  H145  1  0.67750000  0.54268000  0.44784000  1.0
  H  H146  1  0.73231000  0.52888000  0.44597000  1.0
  H  H147  1  0.68469000  0.61388000  0.54177000  1.0
  H  H148  1  0.72796000  0.61599000  0.51602000  1.0
  H  H149  1  0.67665000  0.60723000  0.49520000  1.0
  H  H150  1  0.72265000  0.45053000  0.54932000  1.0
  H  H151  1  0.87411000  0.60429000  0.55368000  1.0
  H  H152  1  0.80802000  0.46137000  0.63195000  1.0
  H  H153  1  0.90408000  0.50536000  0.55912000  1.0
  H  H154  1  0.93283000  0.47484000  0.59889000  1.0
  H  H155  1  0.77135000  0.42903000  0.55314000  1.0
  H  H156  1  0.73536000  0.44296000  0.59044000  1.0
  H  H157  1  0.76809000  0.54685000  0.63769000  1.0
  H  H158  1  0.71780000  0.53722000  0.61809000  1.0
  H  H159  1  0.73972000  0.50612000  0.63998000  1.0
  H  H160  1  0.88359000  0.48161000  0.50316000  1.0
  H  H161  1  0.90867000  0.56906000  0.46536000  1.0
  H  H162  1  0.75450000  0.58921000  0.46212000  1.0
  H  H163  1  0.87294000  0.48998000  0.46340000  1.0
  H  H164  1  0.79832000  0.60650000  0.42225000  1.0
  H  H165  1  0.91995000  0.50921000  0.48847000  1.0
  H  H166  1  0.88982000  0.56689000  0.56920000  1.0
  H  H167  1  0.92092000  0.57508000  0.53555000  1.0
  H  H168  1  0.11353000  0.38496000  0.61049000  1.0
  H  H169  1  0.22056000  0.41478000  0.68006000  1.0
  H  H170  1  0.17086000  0.38197000  0.70632000  1.0
  H  H171  1  0.10726000  0.79649000  0.42326000  1.0
  H  H172  1  0.22181000  0.76981000  0.36376000  1.0
  H  H173  1  0.17417000  0.71415000  0.33179000  1.0
  H  H174  1  0.10094000  0.34719000  0.82257000  1.0
  H  H175  1  0.17604000  0.25587000  0.83675000  1.0
  H  H176  1  0.14302000  0.22583000  0.77524000  1.0
  H  H177  1  0.13109000  0.58004000  0.39103000  1.0
  H  H178  1  0.06197000  0.61050000  0.48935000  1.0
  H  H179  1  0.02882000  0.64828000  0.45519000  1.0
  H  H180  1  0.12927000  0.18649000  0.62911000  1.0
  H  H181  1  0.07108000  0.14159000  0.52459000  1.0
  H  H182  1  0.04013000  0.20965000  0.55892000  1.0
  H  H183  1  0.18397000  0.57961000  0.20654000  1.0
  H  H184  1  0.08298000  0.51204000  0.14378000  1.0
  H  H185  1  0.05533000  0.55290000  0.20561000  1.0
  H  H186  1  0.87730000  0.21858000  0.63609000  1.0
  H  H187  1  0.91854000  0.16644000  0.52594000  1.0
  H  H188  1  0.96123000  0.22668000  0.55738000  1.0
  H  H189  1  0.85243000  0.58686000  0.20166000  1.0
  H  H190  1  0.94862000  0.56822000  0.12326000  1.0
  H  H191  1  0.97946000  0.60600000  0.18437000  1.0
  H  H192  1  0.94417000  0.41061000  0.61396000  1.0
  H  H193  1  0.84478000  0.46964000  0.68703000  1.0
  H  H194  1  0.88293000  0.42605000  0.71287000  1.0
  H  H195  1  0.94052000  0.81371000  0.42176000  1.0
  H  H196  1  0.82963000  0.81169000  0.36049000  1.0
  H  H197  1  0.87064000  0.74921000  0.32608000  1.0
  H  H198  1  0.92894000  0.35795000  0.82322000  1.0
  H  H199  1  0.86763000  0.26162000  0.83495000  1.0
  H  H200  1  0.90091000  0.23483000  0.77333000  1.0
  H  H201  1  0.92467000  0.64234000  0.43811000  1.0
  H  H202  1  0.84843000  0.55066000  0.36599000  1.0
  H  H203  1  0.89195000  0.57432000  0.32752000  1.0
  C  C204  1  0.94945000  0.37838000  0.67145000  1.0
  C  C205  1  0.94642000  0.26865000  0.63238000  1.0
  C  C206  1  0.94126000  0.29098000  0.75316000  1.0
  C  C207  1  0.09448000  0.27778000  0.75276000  1.0
  C  C208  1  0.09608000  0.35525000  0.66759000  1.0
  C  C209  1  0.06843000  0.24975000  0.63082000  1.0
  C  C210  1  0.94536000  0.63686000  0.36337000  1.0
  C  C211  1  0.94573000  0.73672000  0.35789000  1.0
  C  C212  1  0.92510000  0.62434000  0.24475000  1.0
  C  C213  1  0.11303000  0.60227000  0.25659000  1.0
  C  C214  1  0.06421000  0.63697000  0.38795000  1.0
  C  C215  1  0.09513000  0.71764000  0.36224000  1.0
  C  C216  1  0.19579000  0.42182000  0.61408000  1.0
  C  C217  1  0.17259000  0.43629000  0.59146000  1.0
  C  C218  1  0.19365000  0.45247000  0.57008000  1.0
  C  C219  1  0.23677000  0.45422000  0.57032000  1.0
  C  C220  1  0.26041000  0.43906000  0.59218000  1.0
  C  C221  1  0.23985000  0.42306000  0.61395000  1.0
  C  C222  1  0.17359000  0.47089000  0.54595000  1.0
  C  C223  1  0.21180000  0.48391000  0.53165000  1.0
  C  C224  1  0.24866000  0.47405000  0.54599000  1.0
  C  C225  1  0.15007000  0.43806000  0.51493000  1.0
  C  C226  1  0.14571000  0.50704000  0.56989000  1.0
  C  C227  1  0.42324000  0.51489000  0.51200000  1.0
  C  C228  1  0.40184000  0.49697000  0.53187000  1.0
  C  C229  1  0.35819000  0.49525000  0.52977000  1.0
  C  C230  1  0.33513000  0.51096000  0.50870000  1.0
  C  C231  1  0.35609000  0.52892000  0.48850000  1.0
  C  C232  1  0.33123000  0.47721000  0.54944000  1.0
  C  C233  1  0.28805000  0.48432000  0.53666000  1.0
  C  C234  1  0.29028000  0.50431000  0.51291000  1.0
  C  C235  1  0.34255000  0.43211000  0.53595000  1.0
  C  C236  1  0.33679000  0.50085000  0.59098000  1.0
  C  C237  1  0.40001000  0.53091000  0.49035000  1.0
  C  C238  1  0.13153000  0.56086000  0.45701000  1.0
  C  C239  1  0.17544000  0.56000000  0.45427000  1.0
  C  C240  1  0.19950000  0.53949000  0.47153000  1.0
  C  C241  1  0.18079000  0.51958000  0.49032000  1.0
  C  C242  1  0.13700000  0.51852000  0.49142000  1.0
  C  C243  1  0.11269000  0.53939000  0.47507000  1.0
  C  C244  1  0.24659000  0.53795000  0.47437000  1.0
  C  C245  1  0.25278000  0.51459000  0.49852000  1.0
  C  C246  1  0.26480000  0.51487000  0.43589000  1.0
  C  C247  1  0.26213000  0.58102000  0.49330000  1.0
  C  C248  1  0.21392000  0.50411000  0.50772000  1.0
  C  C249  1  0.19136000  0.83163000  0.42751000  1.0
  C  C250  1  0.16798000  0.86716000  0.44515000  1.0
  C  C251  1  0.18896000  0.90196000  0.46643000  1.0
  C  C252  1  0.23196000  0.90202000  0.47089000  1.0
  C  C253  1  0.25537000  0.86632000  0.45466000  1.0
  C  C254  1  0.23504000  0.83149000  0.43301000  1.0
  C  C255  1  0.16945000  0.94290000  0.48508000  1.0
  C  C256  1  0.20776000  0.96739000  0.50156000  1.0
  C  C257  1  0.24429000  0.94329000  0.49300000  1.0
  C  C258  1  0.14824000  0.95549000  0.45584000  1.0
  C  C259  1  0.13952000  0.94212000  0.51494000  1.0
  C  C260  1  0.41972000  0.01080000  0.53364000  1.0
  C  C261  1  0.39833000  0.97520000  0.51579000  1.0
  C  C262  1  0.35450000  0.97592000  0.51571000  1.0
  C  C263  1  0.33145000  0.01085000  0.53295000  1.0
  C  C264  1  0.35240000  0.04648000  0.55209000  1.0
  C  C265  1  0.32725000  0.94086000  0.49675000  1.0
  C  C266  1  0.28395000  0.96051000  0.50474000  1.0
  C  C267  1  0.28655000  0.00157000  0.52583000  1.0
  C  C268  1  0.33719000  0.92407000  0.45548000  1.0
  C  C269  1  0.33405000  0.91057000  0.51492000  1.0
  C  C270  1  0.39639000  0.04628000  0.55227000  1.0
  C  C271  1  0.13214000  0.11370000  0.56134000  1.0
  C  C272  1  0.17526000  0.11301000  0.56852000  1.0
  C  C273  1  0.19773000  0.07653000  0.55449000  1.0
  C  C274  1  0.17814000  0.04120000  0.53482000  1.0
  C  C275  1  0.13482000  0.04150000  0.52846000  1.0
  C  C276  1  0.11217000  0.07776000  0.54143000  1.0
  C  C277  1  0.24441000  0.07065000  0.55624000  1.0
  C  C278  1  0.24946000  0.02596000  0.53484000  1.0
  C  C279  1  0.26579000  0.09454000  0.53685000  1.0
  C  C280  1  0.25737000  0.08252000  0.59652000  1.0
  C  C281  1  0.21041000  0.00893000  0.52258000  1.0
  C  C282  1  0.16984000  0.51981000  0.13164000  1.0
  C  C283  1  0.15305000  0.49824000  0.09683000  1.0
  C  C284  1  0.18009000  0.47846000  0.06752000  1.0
  C  C285  1  0.22304000  0.47997000  0.07177000  1.0
  C  C286  1  0.24031000  0.50214000  0.10605000  1.0
  C  C287  1  0.21375000  0.52180000  0.13570000  1.0
  C  C288  1  0.16737000  0.45311000  0.02912000  1.0
  C  C289  1  0.20980000  0.43872000  0.01135000  1.0
  C  C290  1  0.24226000  0.45477000  0.03650000  1.0
  C  C291  1  0.14150000  0.41824000  0.02983000  1.0
  C  C292  1  0.14396000  0.47985000  0.01247000  1.0
  C  C293  1  0.42753000  0.41535000  0.99705000  1.0
  C  C294  1  0.40087000  0.43873000  0.02564000  1.0
  C  C295  1  0.35739000  0.43643000  0.02026000  1.0
  C  C296  1  0.34011000  0.41193000  0.98746000  1.0
  C  C297  1  0.36646000  0.38843000  0.95872000  1.0
  C  C298  1  0.32446000  0.45851000  0.04794000  1.0
  C  C299  1  0.28465000  0.44421000  0.02597000  1.0
  C  C300  1  0.29406000  0.41687000  0.99061000  1.0
  C  C301  1  0.32795000  0.44473000  0.08008000  1.0
  C  C302  1  0.32967000  0.50380000  0.05885000  1.0
  C  C303  1  0.40994000  0.39022000  0.96369000  1.0
  C  C304  1  0.15907000  0.33771000  0.87690000  1.0
  C  C305  1  0.20227000  0.33701000  0.88353000  1.0
  C  C306  1  0.21840000  0.36330000  0.91673000  1.0
  C  C307  1  0.19268000  0.38905000  0.94381000  1.0
  C  C308  1  0.14943000  0.39078000  0.93718000  1.0
  C  C309  1  0.13288000  0.36525000  0.90360000  1.0
  C  C310  1  0.26390000  0.36816000  0.92702000  1.0
  C  C311  1  0.26126000  0.39991000  0.96538000  1.0
  C  C312  1  0.28177000  0.32816000  0.92688000  1.0
  C  C313  1  0.28638000  0.38333000  0.90088000  1.0
  C  C314  1  0.21942000  0.41148000  0.97538000  1.0
  C  C315  1  0.85956000  0.14842000  0.56892000  1.0
  C  C316  1  0.87450000  0.10986000  0.54754000  1.0
  C  C317  1  0.84753000  0.07787000  0.53823000  1.0
  C  C318  1  0.80599000  0.08331000  0.54871000  1.0
  C  C319  1  0.79091000  0.12166000  0.57120000  1.0
  C  C320  1  0.81790000  0.15403000  0.58138000  1.0
  C  C321  1  0.85929000  0.03493000  0.51689000  1.0
  C  C322  1  0.81751000  0.01548000  0.51467000  1.0
  C  C323  1  0.78611000  0.04397000  0.53287000  1.0
  C  C324  1  0.87469000  0.03055000  0.47886000  1.0
  C  C325  1  0.89180000  0.02115000  0.53908000  1.0
  C  C326  1  0.60070000  0.00100000  0.52355000  1.0
  C  C327  1  0.62760000  0.03333000  0.53871000  1.0
  C  C328  1  0.67102000  0.02667000  0.53327000  1.0
  C  C329  1  0.68786000  0.98907000  0.51355000  1.0
  C  C330  1  0.66140000  0.95645000  0.49938000  1.0
  C  C331  1  0.70436000  0.05755000  0.54652000  1.0
  C  C332  1  0.74377000  0.03228000  0.53123000  1.0
  C  C333  1  0.73367000  0.99223000  0.51170000  1.0
  C  C334  1  0.69614000  0.08844000  0.52931000  1.0
  C  C335  1  0.70455000  0.07550000  0.58865000  1.0
  C  C336  1  0.61813000  0.96259000  0.50437000  1.0
  C  C337  1  0.86419000  0.86404000  0.42677000  1.0
  C  C338  1  0.82107000  0.87062000  0.43387000  1.0
  C  C339  1  0.80629000  0.90819000  0.45768000  1.0
  C  C340  1  0.83298000  0.93938000  0.47376000  1.0
  C  C341  1  0.87639000  0.93280000  0.46798000  1.0
  C  C342  1  0.89180000  0.89509000  0.44463000  1.0
  C  C343  1  0.76150000  0.91984000  0.46872000  1.0
  C  C344  1  0.76547000  0.96354000  0.49342000  1.0
  C  C345  1  0.73564000  0.91458000  0.43409000  1.0
  C  C346  1  0.74645000  0.89504000  0.48998000  1.0
  C  C347  1  0.80727000  0.97496000  0.49558000  1.0
  C  C348  1  0.86279000  0.54651000  0.12190000  1.0
  C  C349  1  0.87902000  0.52156000  0.08773000  1.0
  C  C350  1  0.85198000  0.49775000  0.06061000  1.0
  C  C351  1  0.80939000  0.49810000  0.06628000  1.0
  C  C352  1  0.79245000  0.52341000  0.09997000  1.0
  C  C353  1  0.81916000  0.54741000  0.12755000  1.0
  C  C354  1  0.86477000  0.46899000  0.02333000  1.0
  C  C355  1  0.82298000  0.45141000  0.00775000  1.0
  C  C356  1  0.79052000  0.46858000  0.03294000  1.0
  C  C357  1  0.88300000  0.49272000  0.00226000  1.0
  C  C358  1  0.89529000  0.43722000  0.02750000  1.0
  C  C359  1  0.60809000  0.41845000  0.99808000  1.0
  C  C360  1  0.63354000  0.44469000  0.02560000  1.0
  C  C361  1  0.67689000  0.44387000  0.01986000  1.0
  C  C362  1  0.69510000  0.41783000  0.98784000  1.0
  C  C363  1  0.67004000  0.39151000  0.96026000  1.0
  C  C364  1  0.70879000  0.46966000  0.04595000  1.0
  C  C365  1  0.74884000  0.45542000  0.02390000  1.0
  C  C366  1  0.74047000  0.42486000  0.98998000  1.0
  C  C367  1  0.69803000  0.51379000  0.05332000  1.0
  C  C368  1  0.70978000  0.45997000  0.08043000  1.0
  C  C369  1  0.62682000  0.39202000  0.96548000  1.0
  C  C370  1  0.87669000  0.34418000  0.87662000  1.0
  C  C371  1  0.83439000  0.34165000  0.88421000  1.0
  C  C372  1  0.81736000  0.36885000  0.91694000  1.0
  C  C373  1  0.84157000  0.39715000  0.94251000  1.0
  C  C374  1  0.88396000  0.40004000  0.93512000  1.0
  C  C375  1  0.90121000  0.37372000  0.90205000  1.0
  C  C376  1  0.77213000  0.37268000  0.92786000  1.0
  C  C377  1  0.77343000  0.40705000  0.96484000  1.0
  C  C378  1  0.74575000  0.38372000  0.90003000  1.0
  C  C379  1  0.75967000  0.33354000  0.93118000  1.0
  C  C380  1  0.81429000  0.42077000  0.97347000  1.0
  C  C381  1  0.85668000  0.58949000  0.44111000  1.0
  C  C382  1  0.87516000  0.57444000  0.46545000  1.0
  C  C383  1  0.84910000  0.56346000  0.48792000  1.0
  C  C384  1  0.80598000  0.56762000  0.48677000  1.0
  C  C385  1  0.78760000  0.58478000  0.46401000  1.0
  C  C386  1  0.81299000  0.59519000  0.44107000  1.0
  C  C387  1  0.86262000  0.54385000  0.51342000  1.0
  C  C388  1  0.82056000  0.53658000  0.52687000  1.0
  C  C389  1  0.78757000  0.55031000  0.51081000  1.0
  C  C390  1  0.88630000  0.50417000  0.49129000  1.0
  C  C391  1  0.88849000  0.57378000  0.54463000  1.0
  C  C392  1  0.60311000  0.52314000  0.53193000  1.0
  C  C393  1  0.62938000  0.53988000  0.51405000  1.0
  C  C394  1  0.67274000  0.53962000  0.51998000  1.0
  C  C395  1  0.69038000  0.52361000  0.54326000  1.0
  C  C396  1  0.66434000  0.50766000  0.56199000  1.0
  C  C397  1  0.70524000  0.55460000  0.50194000  1.0
  C  C398  1  0.74532000  0.54463000  0.51792000  1.0
  C  C399  1  0.73642000  0.52642000  0.54202000  1.0
  C  C400  1  0.70262000  0.53036000  0.46027000  1.0
  C  C401  1  0.69840000  0.60023000  0.51397000  1.0
  C  C402  1  0.62096000  0.50743000  0.55617000  1.0
  C  C403  1  0.87277000  0.46633000  0.61896000  1.0
  C  C404  1  0.82925000  0.47138000  0.61655000  1.0
  C  C405  1  0.81299000  0.48852000  0.59315000  1.0
  C  C406  1  0.83869000  0.50145000  0.57266000  1.0
  C  C407  1  0.88240000  0.49638000  0.57457000  1.0
  C  C408  1  0.89919000  0.47853000  0.59750000  1.0
  C  C409  1  0.76737000  0.49387000  0.58622000  1.0
  C  C410  1  0.76967000  0.51340000  0.55906000  1.0
  C  C411  1  0.74778000  0.45214000  0.56911000  1.0
  C  C412  1  0.74677000  0.52229000  0.62230000  1.0
  C  C413  1  0.81153000  0.51806000  0.55131000  1.0
  C  C414  1  0.13045000  0.37788000  0.66174000  1.0
  C  C415  1  0.13500000  0.38953000  0.63288000  1.0
  C  C416  1  0.17443000  0.40603000  0.63811000  1.0
  C  C417  1  0.12917000  0.74636000  0.37295000  1.0
  C  C418  1  0.13107000  0.78244000  0.40289000  1.0
  C  C419  1  0.17146000  0.79526000  0.40160000  1.0
  C  C420  1  0.11279000  0.28303000  0.78833000  1.0
  C  C421  1  0.11459000  0.31838000  0.81898000  1.0
  C  C422  1  0.14186000  0.30941000  0.84226000  1.0
  C  C423  1  0.07579000  0.62002000  0.41470000  1.0
  C  C424  1  0.10838000  0.59314000  0.41261000  1.0
  C  C425  1  0.10487000  0.58681000  0.44459000  1.0
  C  C426  1  0.08113000  0.21129000  0.60243000  1.0
  C  C427  1  0.11022000  0.18387000  0.60570000  1.0
  C  C428  1  0.10814000  0.15171000  0.57246000  1.0
  C  C429  1  0.11745000  0.57487000  0.21827000  1.0
  C  C430  1  0.15362000  0.56694000  0.19771000  1.0
  C  C431  1  0.14200000  0.53936000  0.16367000  1.0
  C  C432  1  0.92489000  0.23519000  0.60474000  1.0
  C  C433  1  0.89282000  0.21361000  0.61069000  1.0
  C  C434  1  0.88750000  0.18237000  0.57723000  1.0
  C  C435  1  0.91864000  0.60394000  0.20537000  1.0
  C  C436  1  0.88167000  0.58742000  0.18857000  1.0
  C  C437  1  0.89127000  0.57033000  0.15176000  1.0
  C  C438  1  0.92371000  0.41026000  0.66685000  1.0
  C  C439  1  0.92403000  0.42190000  0.63759000  1.0
  C  C440  1  0.88989000  0.44830000  0.64383000  1.0
  C  C441  1  0.91593000  0.77084000  0.36904000  1.0
  C  C442  1  0.91691000  0.80526000  0.40059000  1.0
  C  C443  1  0.87968000  0.82552000  0.39951000  1.0
  C  C444  1  0.92368000  0.29381000  0.78785000  1.0
  C  C445  1  0.91886000  0.32835000  0.81885000  1.0
  C  C446  1  0.89461000  0.31719000  0.84159000  1.0
  C  C447  1  0.91879000  0.61409000  0.37769000  1.0
  C  C448  1  0.91159000  0.62001000  0.41379000  1.0
  C  C449  1  0.88082000  0.59285000  0.41138000  1.0
  C  C450  1  0.48972000  0.55332000  0.52372000  1.0
  C  C451  1  0.53322000  0.55537000  0.52884000  1.0
  C  C452  1  0.55734000  0.52097000  0.52478000  1.0
  C  C453  1  0.53736000  0.48431000  0.51439000  1.0
  C  C454  1  0.49401000  0.48224000  0.50919000  1.0
  C  C455  1  0.46962000  0.51680000  0.51434000  1.0
  C  C456  1  0.49089000  0.02706000  0.56300000  1.0
  C  C457  1  0.53474000  0.02498000  0.56054000  1.0
  C  C458  1  0.55447000  0.00669000  0.52646000  1.0
  C  C459  1  0.52960000  0.99181000  0.49488000  1.0
  C  C460  1  0.48596000  0.99389000  0.49732000  1.0
  C  C461  1  0.46610000  0.01090000  0.53142000  1.0
  C  C462  1  0.49410000  0.45342000  0.01123000  1.0
  C  C463  1  0.53793000  0.45422000  0.01159000  1.0
  C  C464  1  0.56199000  0.41867000  0.00236000  1.0
  C  C465  1  0.54140000  0.38262000  0.99435000  1.0
  C  C466  1  0.49769000  0.38181000  0.99379000  1.0
  C  C467  1  0.47365000  0.41705000  0.00146000  1.0
  N  N468  1  0.19142000  0.40447000  0.66868000  1.0
  N  N469  1  0.16493000  0.38744000  0.68284000  1.0
  N  N470  1  0.19137000  0.76839000  0.37232000  1.0
  N  N471  1  0.16597000  0.73907000  0.35515000  1.0
  N  N472  1  0.15462000  0.27092000  0.82628000  1.0
  N  N473  1  0.13692000  0.25495000  0.79386000  1.0
  N  N474  1  0.07218000  0.60875000  0.46398000  1.0
  N  N475  1  0.05486000  0.62897000  0.44607000  1.0
  N  N476  1  0.07955000  0.16004000  0.55112000  1.0
  N  N477  1  0.06347000  0.19613000  0.56912000  1.0
  N  N478  1  0.10096000  0.53190000  0.16468000  1.0
  N  N479  1  0.08624000  0.55334000  0.19758000  1.0
  N  N480  1  0.91472000  0.18582000  0.55317000  1.0
  N  N481  1  0.93708000  0.21782000  0.56971000  1.0
  N  N482  1  0.93189000  0.57704000  0.14757000  1.0
  N  N483  1  0.94834000  0.59726000  0.17995000  1.0
  N  N484  1  0.87140000  0.45224000  0.67528000  1.0
  N  N485  1  0.89178000  0.42937000  0.68911000  1.0
  N  N486  1  0.85854000  0.80415000  0.36897000  1.0
  N  N487  1  0.88046000  0.77130000  0.35055000  1.0
  N  N488  1  0.88610000  0.27821000  0.82491000  1.0
  N  N489  1  0.90396000  0.26399000  0.79249000  1.0
  N  N490  1  0.87121000  0.57229000  0.37617000  1.0
  N  N491  1  0.89419000  0.58489000  0.35588000  1.0
  O  O492  1  0.04612000  0.27522000  0.62132000  1.0
  O  O493  1  0.07757000  0.25746000  0.66515000  1.0
  O  O494  1  0.93868000  0.36609000  0.69707000  1.0
  O  O495  1  0.98092000  0.36118000  0.64904000  1.0
  O  O496  1  0.97597000  0.28646000  0.62201000  1.0
  O  O497  1  0.93789000  0.27879000  0.66705000  1.0
  O  O498  1  0.07697000  0.30826000  0.74754000  1.0
  O  O499  1  0.10097000  0.24389000  0.72485000  1.0
  O  O500  1  0.01491000  0.32112000  0.69499000  1.0
  O  O501  1  0.94894000  0.32369000  0.74813000  1.0
  O  O502  1  0.94455000  0.25616000  0.72580000  1.0
  O  O503  1  0.10101000  0.34081000  0.69297000  1.0
  O  O504  1  0.06225000  0.34823000  0.64676000  1.0
  O  O505  1  0.05931000  0.72514000  0.38063000  1.0
  O  O506  1  0.10254000  0.68351000  0.33450000  1.0
  O  O507  1  0.94230000  0.62903000  0.32841000  1.0
  O  O508  1  0.97083000  0.66445000  0.38466000  1.0
  O  O509  1  0.97532000  0.73432000  0.38052000  1.0
  O  O510  1  0.94004000  0.70760000  0.32581000  1.0
  O  O511  1  0.07667000  0.60675000  0.27293000  1.0
  O  O512  1  0.14514000  0.62271000  0.27444000  1.0
  O  O513  1  0.01798000  0.66411000  0.32423000  1.0
  O  O514  1  0.96266000  0.63505000  0.25830000  1.0
  O  O515  1  0.89314000  0.63118000  0.26695000  1.0
  O  O516  1  0.07501000  0.61851000  0.35345000  1.0
  O  O517  1  0.04118000  0.67018000  0.39921000  1.0
  F  F518  1  0.46705000  0.58737000  0.52956000  1.0
  F  F519  1  0.55152000  0.59129000  0.53926000  1.0
  F  F520  1  0.55994000  0.45030000  0.50894000  1.0
  F  F521  1  0.47582000  0.44626000  0.49889000  1.0
  F  F522  1  0.47273000  0.04334000  0.59636000  1.0
  F  F523  1  0.55788000  0.03922000  0.59155000  1.0
  F  F524  1  0.54764000  0.97529000  0.46146000  1.0
  F  F525  1  0.46301000  0.97951000  0.46618000  1.0
  F  F526  1  0.47167000  0.48788000  0.01842000  1.0
  F  F527  1  0.55676000  0.48943000  0.01889000  1.0
  F  F528  1  0.56368000  0.34798000  0.98668000  1.0
  F  F529  1  0.47879000  0.34644000  0.98544000  1.0
