# generated using pymatgen
data_Cu2H65C94N17(ClO3)2
_symmetry_space_group_name_H-M   'P 1'
_cell_length_a   38.72150000
_cell_length_b   38.72150000
_cell_length_c   41.59040000
_cell_angle_alpha   94.37400000
_cell_angle_beta   94.37400000
_cell_angle_gamma   111.03000000
_symmetry_Int_Tables_number   1
_chemical_formula_structural   Cu2H65C94N17(ClO3)2
_chemical_formula_sum   'Cu4 H130 C188 N34 Cl4 O12'
_cell_volume   57674.73753083
_cell_formula_units_Z   2
loop_
 _symmetry_equiv_pos_site_id
 _symmetry_equiv_pos_as_xyz
  1  'x, y, z'
loop_
 _atom_site_type_symbol
 _atom_site_label
 _atom_site_symmetry_multiplicity
 _atom_site_fract_x
 _atom_site_fract_y
 _atom_site_fract_z
 _atom_site_occupancy
  Cu  Cu0  1  0.88491000  0.87758000  0.97615000  1.0
  Cu  Cu1  1  0.95553000  0.94819000  0.04375000  1.0
  Cu  Cu2  1  0.94035000  0.93299000  0.91018000  1.0
  Cu  Cu3  1  0.01089000  0.00365000  0.97776000  1.0
  H  H4  1  0.54674000  0.95693000  0.78663000  1.0
  H  H5  1  0.42774000  0.85990000  0.80238000  1.0
  H  H6  1  0.38056000  0.85389000  0.79677000  1.0
  H  H7  1  0.41697000  0.90029000  0.80308000  1.0
  H  H8  1  0.37323000  0.91460000  0.77996000  1.0
  H  H9  1  0.35067000  0.92122000  0.74430000  1.0
  H  H10  1  0.46467000  0.84730000  0.77656000  1.0
  H  H11  1  0.47725000  0.84128000  0.73807000  1.0
  H  H12  1  0.32314000  0.89235000  0.69979000  1.0
  H  H13  1  0.32493000  0.86051000  0.66851000  1.0
  H  H14  1  0.35576000  0.90857000  0.67075000  1.0
  H  H15  1  0.45894000  0.85980000  0.65784000  1.0
  H  H16  1  0.46006000  0.82760000  0.68542000  1.0
  H  H17  1  0.48782000  0.87659000  0.69462000  1.0
  H  H18  1  0.39979000  0.83750000  0.64038000  1.0
  H  H19  1  0.36696000  0.85979000  0.63827000  1.0
  H  H20  1  0.38879000  0.84507000  0.58843000  1.0
  H  H21  1  0.46421000  0.95564000  0.62753000  1.0
  H  H22  1  0.25200000  0.83603000  0.75539000  1.0
  H  H23  1  0.33623000  0.93769000  0.80235000  1.0
  H  H24  1  0.39484000  0.86352000  0.53422000  1.0
  H  H25  1  0.47620000  0.97072000  0.57345000  1.0
  H  H26  1  0.20499000  0.85075000  0.78406000  1.0
  H  H27  1  0.28962000  0.95309000  0.82932000  1.0
  H  H28  1  0.52827000  0.84152000  0.75820000  1.0
  H  H29  1  0.58979000  0.85087000  0.78220000  1.0
  H  H30  1  0.60936000  0.96606000  0.81170000  1.0
  H  H31  1  0.86915000  0.50675000  0.77548000  1.0
  H  H32  1  0.96248000  0.45566000  0.81545000  1.0
  H  H33  1  0.96922000  0.41318000  0.81130000  1.0
  H  H34  1  0.92257000  0.41500000  0.80625000  1.0
  H  H35  1  0.90939000  0.36118000  0.77955000  1.0
  H  H36  1  0.90615000  0.33491000  0.74251000  1.0
  H  H37  1  0.97735000  0.50252000  0.79304000  1.0
  H  H38  1  0.98674000  0.51989000  0.75629000  1.0
  H  H39  1  0.93831000  0.32968000  0.70592000  1.0
  H  H40  1  0.97232000  0.35654000  0.68344000  1.0
  H  H41  1  0.92442000  0.35084000  0.67281000  1.0
  H  H42  1  0.97328000  0.49110000  0.67231000  1.0
  H  H43  1  0.00339000  0.51443000  0.70750000  1.0
  H  H44  1  0.95445000  0.50724000  0.70454000  1.0
  H  H45  1  0.99563000  0.44784000  0.66383000  1.0
  H  H46  1  0.97318000  0.39918000  0.65371000  1.0
  H  H47  1  0.99978000  0.44104000  0.61500000  1.0
  H  H48  1  0.88114000  0.42082000  0.60921000  1.0
  H  H49  1  0.99168000  0.30167000  0.77208000  1.0
  H  H50  1  0.88652000  0.30542000  0.79562000  1.0
  H  H51  1  0.99858000  0.44230000  0.55976000  1.0
  H  H52  1  0.88035000  0.41828000  0.55001000  1.0
  H  H53  1  0.97861000  0.24391000  0.79742000  1.0
  H  H54  1  0.87275000  0.24732000  0.81951000  1.0
  H  H55  1  0.98629000  0.57053000  0.77430000  1.0
  H  H56  1  0.97805000  0.62524000  0.79613000  1.0
  H  H57  1  0.86109000  0.56344000  0.79884000  1.0
  H  H58  1  0.38185000  0.01933000  0.17848000  1.0
  H  H59  1  0.43290000  0.92587000  0.13869000  1.0
  H  H60  1  0.47543000  0.91929000  0.14285000  1.0
  H  H61  1  0.47352000  0.96589000  0.14799000  1.0
  H  H62  1  0.52729000  0.97911000  0.17486000  1.0
  H  H63  1  0.55355000  0.98205000  0.21180000  1.0
  H  H64  1  0.38598000  0.91118000  0.16105000  1.0
  H  H65  1  0.36850000  0.90168000  0.19775000  1.0
  H  H66  1  0.55871000  0.94995000  0.24834000  1.0
  H  H67  1  0.53229000  0.91592000  0.27096000  1.0
  H  H68  1  0.53705000  0.96364000  0.28115000  1.0
  H  H69  1  0.39720000  0.91412000  0.28167000  1.0
  H  H70  1  0.37349000  0.88450000  0.24642000  1.0
  H  H71  1  0.38167000  0.93368000  0.24964000  1.0
  H  H72  1  0.44029000  0.89145000  0.29131000  1.0
  H  H73  1  0.48915000  0.91391000  0.29995000  1.0
  H  H74  1  0.45247000  0.89285000  0.34206000  1.0
  H  H75  1  0.46997000  0.00967000  0.33815000  1.0
  H  H76  1  0.58677000  0.89679000  0.18189000  1.0
  H  H77  1  0.58293000  0.00189000  0.15833000  1.0
  H  H78  1  0.45014000  0.89914000  0.39717000  1.0
  H  H79  1  0.46845000  0.01624000  0.39684000  1.0
  H  H80  1  0.64441000  0.90976000  0.15639000  1.0
  H  H81  1  0.64102000  0.01564000  0.13432000  1.0
  H  H82  1  0.31794000  0.90221000  0.17967000  1.0
  H  H83  1  0.26330000  0.91051000  0.15775000  1.0
  H  H84  1  0.32521000  0.02740000  0.15499000  1.0
  H  H85  1  0.93144000  0.34173000  0.16718000  1.0
  H  H86  1  0.02849000  0.46067000  0.15082000  1.0
  H  H87  1  0.03454000  0.50792000  0.15644000  1.0
  H  H88  1  0.98805000  0.47151000  0.15005000  1.0
  H  H89  1  0.97376000  0.51534000  0.17312000  1.0
  H  H90  1  0.96703000  0.53761000  0.20896000  1.0
  H  H91  1  0.04094000  0.42352000  0.17653000  1.0
  H  H92  1  0.04726000  0.41136000  0.21514000  1.0
  H  H93  1  0.99575000  0.56551000  0.25332000  1.0
  H  H94  1  0.02784000  0.56394000  0.28431000  1.0
  H  H95  1  0.97998000  0.53277000  0.28233000  1.0
  H  H96  1  0.02971000  0.42992000  0.29537000  1.0
  H  H97  1  0.06115000  0.42844000  0.26757000  1.0
  H  H98  1  0.01202000  0.40087000  0.25881000  1.0
  H  H99  1  0.05235000  0.49029000  0.31096000  1.0
  H  H100  1  0.02881000  0.52198000  0.31351000  1.0
  H  H101  1  0.04520000  0.50071000  0.36178000  1.0
  H  H102  1  0.93115000  0.43245000  0.32467000  1.0
  H  H103  1  0.05241000  0.63649000  0.19849000  1.0
  H  H104  1  0.95065000  0.55250000  0.15138000  1.0
  H  H105  1  0.03153000  0.49231000  0.41517000  1.0
  H  H106  1  0.91833000  0.41968000  0.37921000  1.0
  H  H107  1  0.03788000  0.68361000  0.16984000  1.0
  H  H108  1  0.93546000  0.59915000  0.12444000  1.0
  H  H109  1  0.04682000  0.36011000  0.19562000  1.0
  H  H110  1  0.03744000  0.29858000  0.17168000  1.0
  H  H111  1  0.92224000  0.27907000  0.14218000  1.0
  H  H112  1  0.39072000  0.92923000  0.52683000  1.0
  H  H113  1  0.43306000  0.96925000  0.53331000  1.0
  H  H114  1  0.47020000  0.99222000  0.44646000  1.0
  H  H115  1  0.48396000  0.97368000  0.50124000  1.0
  H  H116  1  0.48230000  0.92669000  0.50368000  1.0
  H  H117  1  0.38006000  0.94038000  0.47523000  1.0
  H  H118  1  0.42198000  0.98174000  0.48264000  1.0
  H  H119  1  0.46644000  0.91055000  0.44717000  1.0
  H  H120  1  0.50754000  0.95226000  0.45359000  1.0
  H  H121  1  0.40307000  0.96495000  0.42602000  1.0
  H  H122  1  0.40217000  0.91809000  0.42825000  1.0
  H  H123  1  0.95276000  0.38942000  0.52296000  1.0
  H  H124  1  0.90755000  0.38861000  0.51229000  1.0
  H  H125  1  0.95448000  0.41097000  0.42765000  1.0
  H  H126  1  0.90717000  0.40240000  0.46188000  1.0
  H  H127  1  0.90058000  0.44171000  0.48320000  1.0
  H  H128  1  0.00889000  0.44134000  0.50633000  1.0
  H  H129  1  0.98036000  0.40188000  0.47802000  1.0
  H  H130  1  0.94603000  0.48477000  0.45303000  1.0
  H  H131  1  0.91099000  0.44790000  0.42648000  1.0
  H  H132  1  0.02169000  0.44623000  0.44942000  1.0
  H  H133  1  0.00909000  0.48410000  0.46657000  1.0
  C  C134  1  0.84693000  0.93838000  0.03906000  1.0
  C  C135  1  0.06404000  0.95976000  0.04171000  1.0
  C  C136  1  0.95002000  0.04152000  0.91478000  1.0
  C  C137  1  0.92882000  0.82453000  0.91210000  1.0
  C  C138  1  0.83177000  0.92161000  0.91207000  1.0
  C  C139  1  0.94567000  0.83944000  0.03912000  1.0
  C  C140  1  0.96683000  0.05676000  0.04182000  1.0
  C  C141  1  0.04916000  0.94304000  0.91473000  1.0
  C  C142  1  0.35641000  0.89944000  0.75719000  1.0
  C  C143  1  0.40725000  0.87186000  0.75461000  1.0
  C  C144  1  0.46870000  0.86023000  0.75379000  1.0
  C  C145  1  0.37901000  0.88165000  0.73810000  1.0
  C  C146  1  0.34268000  0.88521000  0.68524000  1.0
  C  C147  1  0.43366000  0.86317000  0.73694000  1.0
  C  C148  1  0.46027000  0.85611000  0.68385000  1.0
  C  C149  1  0.37324000  0.87632000  0.70383000  1.0
  C  C150  1  0.42944000  0.86084000  0.70266000  1.0
  C  C151  1  0.39734000  0.86393000  0.68635000  1.0
  C  C152  1  0.39442000  0.86239000  0.65018000  1.0
  C  C153  1  0.42634000  0.89977000  0.61254000  1.0
  C  C154  1  0.29785000  0.88550000  0.77606000  1.0
  C  C155  1  0.40833000  0.87254000  0.58575000  1.0
  C  C156  1  0.45151000  0.93424000  0.60737000  1.0
  C  C157  1  0.26020000  0.86216000  0.77078000  1.0
  C  C158  1  0.30771000  0.91850000  0.79755000  1.0
  C  C159  1  0.41267000  0.88247000  0.55445000  1.0
  C  C160  1  0.45839000  0.94263000  0.57646000  1.0
  C  C161  1  0.23337000  0.87047000  0.78739000  1.0
  C  C162  1  0.28070000  0.92746000  0.81325000  1.0
  C  C163  1  0.43511000  0.91906000  0.55026000  1.0
  C  C164  1  0.24325000  0.90308000  0.80895000  1.0
  C  C165  1  0.60388000  0.90866000  0.80057000  1.0
  C  C166  1  0.54464000  0.86881000  0.77030000  1.0
  C  C167  1  0.58053000  0.87408000  0.78421000  1.0
  C  C168  1  0.59156000  0.93863000  0.80056000  1.0
  C  C169  1  0.55581000  0.93349000  0.78634000  1.0
  C  C170  1  0.53128000  0.89847000  0.77212000  1.0
  C  C171  1  0.40853000  0.87155000  0.79104000  1.0
  C  C172  1  0.92636000  0.35650000  0.76084000  1.0
  C  C173  1  0.95383000  0.42756000  0.76531000  1.0
  C  C174  1  0.96628000  0.49756000  0.76726000  1.0
  C  C175  1  0.94489000  0.39253000  0.74649000  1.0
  C  C176  1  0.94611000  0.35495000  0.69342000  1.0
  C  C177  1  0.96391000  0.46081000  0.74999000  1.0
  C  C178  1  0.97493000  0.49426000  0.69903000  1.0
  C  C179  1  0.95226000  0.39138000  0.71396000  1.0
  C  C180  1  0.96776000  0.45913000  0.71657000  1.0
  C  C181  1  0.96466000  0.42486000  0.69977000  1.0
  C  C182  1  0.96930000  0.42409000  0.66514000  1.0
  C  C183  1  0.93999000  0.43115000  0.61744000  1.0
  C  C184  1  0.94053000  0.30837000  0.78189000  1.0
  C  C185  1  0.97353000  0.43927000  0.60281000  1.0
  C  C186  1  0.90689000  0.42617000  0.59843000  1.0
  C  C187  1  0.96516000  0.28934000  0.78146000  1.0
  C  C188  1  0.90676000  0.29215000  0.79543000  1.0
  C  C189  1  0.97311000  0.43961000  0.57020000  1.0
  C  C190  1  0.90647000  0.42527000  0.56512000  1.0
  C  C191  1  0.95783000  0.25651000  0.79622000  1.0
  C  C192  1  0.89882000  0.25856000  0.80924000  1.0
  C  C193  1  0.93904000  0.42814000  0.55142000  1.0
  C  C194  1  0.92507000  0.24110000  0.81084000  1.0
  C  C195  1  0.91962000  0.59846000  0.80124000  1.0
  C  C196  1  0.95871000  0.56730000  0.77992000  1.0
  C  C197  1  0.95413000  0.59949000  0.79264000  1.0
  C  C198  1  0.88862000  0.56496000  0.79403000  1.0
  C  C199  1  0.89310000  0.53256000  0.78080000  1.0
  C  C200  1  0.92834000  0.53278000  0.77500000  1.0
  C  C201  1  0.95186000  0.42815000  0.80143000  1.0
  C  C202  1  0.53195000  0.96195000  0.19341000  1.0
  C  C203  1  0.46089000  0.93440000  0.18882000  1.0
  C  C204  1  0.39090000  0.92213000  0.18685000  1.0
  C  C205  1  0.49586000  0.94312000  0.20765000  1.0
  C  C206  1  0.53337000  0.94184000  0.26073000  1.0
  C  C207  1  0.42758000  0.92411000  0.20405000  1.0
  C  C208  1  0.39409000  0.91270000  0.25496000  1.0
  C  C209  1  0.49685000  0.93491000  0.23996000  1.0
  C  C210  1  0.42907000  0.91922000  0.23727000  1.0
  C  C211  1  0.46316000  0.92141000  0.25383000  1.0
  C  C212  1  0.46399000  0.91739000  0.28855000  1.0
  C  C213  1  0.46285000  0.95169000  0.33549000  1.0
  C  C214  1  0.58008000  0.94794000  0.17212000  1.0
  C  C215  1  0.45689000  0.92053000  0.35289000  1.0
  C  C216  1  0.46771000  0.98622000  0.35159000  1.0
  C  C217  1  0.59910000  0.92330000  0.17250000  1.0
  C  C218  1  0.59625000  0.98167000  0.15851000  1.0
  C  C219  1  0.45673000  0.92431000  0.38551000  1.0
  C  C220  1  0.46714000  0.98996000  0.38474000  1.0
  C  C221  1  0.63186000  0.93058000  0.15764000  1.0
  C  C222  1  0.62981000  0.98958000  0.14462000  1.0
  C  C223  1  0.46267000  0.95917000  0.40181000  1.0
  C  C224  1  0.64725000  0.96332000  0.14299000  1.0
  C  C225  1  0.29015000  0.96890000  0.15259000  1.0
  C  C226  1  0.32124000  0.92980000  0.17403000  1.0
  C  C227  1  0.28908000  0.93440000  0.16123000  1.0
  C  C228  1  0.32368000  0.99988000  0.15982000  1.0
  C  C229  1  0.35605000  0.99539000  0.17315000  1.0
  C  C230  1  0.35579000  0.96015000  0.17903000  1.0
  C  C231  1  0.46040000  0.93657000  0.15274000  1.0
  C  C232  1  0.98882000  0.53202000  0.19595000  1.0
  C  C233  1  0.01641000  0.48114000  0.19831000  1.0
  C  C234  1  0.02820000  0.41973000  0.19938000  1.0
  C  C235  1  0.00657000  0.50940000  0.21477000  1.0
  C  C236  1  0.00315000  0.54597000  0.26764000  1.0
  C  C237  1  0.02534000  0.45484000  0.21596000  1.0
  C  C238  1  0.03276000  0.42845000  0.26921000  1.0
  C  C239  1  0.01218000  0.51546000  0.24885000  1.0
  C  C240  1  0.02792000  0.45925000  0.25010000  1.0
  C  C241  1  0.02491000  0.49154000  0.26599000  1.0
  C  C242  1  0.02679000  0.49470000  0.30151000  1.0
  C  C243  1  0.98826000  0.46802000  0.33890000  1.0
  C  C244  1  0.00291000  0.59076000  0.17765000  1.0
  C  C245  1  0.01673000  0.48443000  0.36492000  1.0
  C  C246  1  0.95250000  0.44667000  0.34457000  1.0
  C  C247  1  0.02632000  0.62837000  0.18305000  1.0
  C  C248  1  0.96992000  0.58099000  0.15619000  1.0
  C  C249  1  0.00894000  0.47939000  0.39601000  1.0
  C  C250  1  0.94535000  0.43948000  0.37551000  1.0
  C  C251  1  0.01811000  0.65526000  0.16647000  1.0
  C  C252  1  0.96107000  0.60803000  0.14053000  1.0
  C  C253  1  0.97359000  0.45541000  0.40124000  1.0
  C  C254  1  0.98554000  0.64544000  0.14486000  1.0
  C  C255  1  0.97967000  0.28452000  0.15333000  1.0
  C  C256  1  0.01952000  0.34374000  0.18352000  1.0
  C  C257  1  0.01422000  0.30785000  0.16966000  1.0
  C  C258  1  0.94968000  0.29685000  0.15331000  1.0
  C  C259  1  0.95484000  0.33262000  0.16749000  1.0
  C  C260  1  0.98989000  0.35712000  0.18163000  1.0
  C  C261  1  0.01679000  0.47991000  0.16201000  1.0
  C  C262  1  0.79702000  0.92258000  0.89590000  1.0
  C  C263  1  0.76785000  0.92317000  0.88268000  1.0
  C  C264  1  0.73328000  0.92198000  0.86599000  1.0
  C  C265  1  0.70396000  0.91994000  0.85109000  1.0
  C  C266  1  0.66936000  0.91652000  0.83314000  1.0
  C  C267  1  0.63957000  0.91292000  0.81832000  1.0
  C  C268  1  0.94295000  0.07207000  0.89999000  1.0
  C  C269  1  0.93661000  0.09706000  0.88724000  1.0
  C  C270  1  0.92995000  0.12650000  0.87157000  1.0
  C  C271  1  0.92510000  0.15172000  0.85810000  1.0
  C  C272  1  0.92098000  0.18202000  0.84217000  1.0
  C  C273  1  0.92038000  0.20870000  0.82853000  1.0
  C  C274  1  0.07992000  0.93638000  0.89979000  1.0
  C  C275  1  0.10512000  0.93044000  0.88696000  1.0
  C  C276  1  0.13489000  0.92451000  0.87109000  1.0
  C  C277  1  0.16027000  0.92017000  0.85740000  1.0
  C  C278  1  0.19017000  0.91538000  0.84109000  1.0
  C  C279  1  0.21499000  0.91066000  0.82688000  1.0
  C  C280  1  0.92930000  0.78981000  0.89564000  1.0
  C  C281  1  0.92917000  0.76034000  0.88256000  1.0
  C  C282  1  0.92678000  0.72541000  0.86590000  1.0
  C  C283  1  0.92359000  0.69574000  0.85109000  1.0
  C  C284  1  0.91948000  0.66090000  0.83339000  1.0
  C  C285  1  0.91749000  0.63158000  0.81883000  1.0
  C  C286  1  0.09885000  0.95935000  0.05807000  1.0
  C  C287  1  0.12821000  0.95936000  0.07129000  1.0
  C  C288  1  0.16314000  0.96174000  0.08796000  1.0
  C  C289  1  0.19286000  0.96497000  0.10272000  1.0
  C  C290  1  0.22772000  0.96908000  0.12040000  1.0
  C  C291  1  0.25704000  0.97105000  0.13497000  1.0
  C  C292  1  0.95241000  0.80872000  0.05405000  1.0
  C  C293  1  0.95838000  0.78352000  0.06682000  1.0
  C  C294  1  0.96433000  0.75376000  0.08266000  1.0
  C  C295  1  0.96866000  0.72838000  0.09634000  1.0
  C  C296  1  0.97341000  0.69850000  0.11267000  1.0
  C  C297  1  0.97807000  0.67370000  0.12691000  1.0
  C  C298  1  0.81633000  0.94540000  0.05382000  1.0
  C  C299  1  0.79129000  0.95168000  0.06653000  1.0
  C  C300  1  0.76180000  0.95830000  0.08219000  1.0
  C  C301  1  0.73657000  0.96315000  0.09564000  1.0
  C  C302  1  0.70627000  0.96730000  0.11158000  1.0
  C  C303  1  0.67962000  0.96796000  0.12525000  1.0
  C  C304  1  0.96583000  0.09149000  0.05797000  1.0
  C  C305  1  0.96512000  0.12056000  0.07128000  1.0
  C  C306  1  0.96624000  0.15509000  0.08800000  1.0
  C  C307  1  0.96830000  0.18442000  0.10286000  1.0
  C  C308  1  0.97173000  0.21903000  0.12078000  1.0
  C  C309  1  0.97538000  0.24883000  0.13560000  1.0
  C  C310  1  0.42135000  0.93855000  0.52605000  1.0
  C  C311  1  0.46964000  0.94413000  0.49076000  1.0
  C  C312  1  0.47714000  0.94072000  0.45571000  1.0
  C  C313  1  0.41057000  0.95142000  0.47368000  1.0
  C  C314  1  0.41618000  0.94769000  0.43874000  1.0
  C  C315  1  0.45793000  0.96231000  0.43639000  1.0
  C  C316  1  0.93666000  0.40800000  0.51993000  1.0
  C  C317  1  0.92136000  0.43204000  0.47243000  1.0
  C  C318  1  0.93521000  0.45436000  0.44511000  1.0
  C  C319  1  0.98575000  0.43157000  0.48635000  1.0
  C  C320  1  0.99869000  0.45366000  0.45855000  1.0
  C  C321  1  0.96541000  0.44204000  0.43271000  1.0
  N  N322  1  0.87674000  0.91403000  0.00939000  1.0
  N  N323  1  0.02663000  0.97535000  0.01107000  1.0
  N  N324  1  0.97443000  0.01178000  0.94448000  1.0
  N  N325  1  0.91318000  0.86183000  0.94280000  1.0
  N  N326  1  0.88795000  0.92477000  0.92036000  1.0
  N  N327  1  0.94538000  0.89350000  0.03249000  1.0
  N  N328  1  0.96370000  0.00056000  0.03358000  1.0
  N  N329  1  0.99506000  0.94322000  0.92142000  1.0
  N  N330  1  0.01922000  0.96723000  0.94448000  1.0
  N  N331  1  0.86906000  0.90580000  0.94274000  1.0
  N  N332  1  0.92140000  0.86934000  0.00941000  1.0
  N  N333  1  0.98263000  0.01944000  0.01118000  1.0
  N  N334  1  0.00779000  0.95637000  0.03347000  1.0
  N  N335  1  0.93217000  0.88075000  0.92046000  1.0
  N  N336  1  0.90094000  0.93804000  0.03243000  1.0
  N  N337  1  0.95043000  0.98756000  0.92146000  1.0
  N  N338  1  0.84269000  0.91355000  0.01302000  1.0
  N  N339  1  0.06192000  0.97808000  0.01577000  1.0
  N  N340  1  0.97486000  0.04582000  0.94083000  1.0
  N  N341  1  0.91048000  0.82656000  0.93802000  1.0
  N  N342  1  0.86529000  0.93486000  0.90077000  1.0
  N  N343  1  0.96080000  0.87558000  0.05148000  1.0
  N  N344  1  0.95362000  0.02324000  0.05316000  1.0
  N  N345  1  0.01302000  0.92784000  0.90240000  1.0
  N  N346  1  0.05331000  0.96781000  0.94083000  1.0
  N  N347  1  0.83379000  0.90323000  0.93801000  1.0
  N  N348  1  0.92090000  0.83525000  0.01304000  1.0
  N  N349  1  0.98518000  0.05471000  0.01587000  1.0
  N  N350  1  0.03056000  0.94643000  0.05307000  1.0
  N  N351  1  0.93491000  0.00539000  0.90247000  1.0
  N  N352  1  0.94216000  0.85806000  0.90080000  1.0
  N  N353  1  0.88305000  0.95353000  0.05140000  1.0
  N  N354  1  0.42887000  0.93095000  0.49297000  1.0
  N  N355  1  0.95182000  0.43563000  0.49764000  1.0
  Cl  Cl356  1  0.83323000  0.82587000  0.97552000  1.0
  Cl  Cl357  1  0.06259000  0.05537000  0.97846000  1.0
  Cl  Cl358  1  0.93414000  0.92681000  0.85524000  1.0
  Cl  Cl359  1  0.96170000  0.95438000  0.09867000  1.0
  O  O360  1  0.32388000  0.87141000  0.76498000  1.0
  O  O361  1  0.49628000  0.89648000  0.75893000  1.0
  O  O362  1  0.42181000  0.89572000  0.64457000  1.0
  O  O363  1  0.95416000  0.34537000  0.77555000  1.0
  O  O364  1  0.93027000  0.49902000  0.76299000  1.0
  O  O365  1  0.93797000  0.42894000  0.65000000  1.0
  O  O366  1  0.54308000  0.93428000  0.17843000  1.0
  O  O367  1  0.38950000  0.95817000  0.19123000  1.0
  O  O368  1  0.45926000  0.94923000  0.30248000  1.0
  O  O369  1  0.01694000  0.56466000  0.18855000  1.0
  O  O370  1  0.99195000  0.39218000  0.19466000  1.0
  O  O371  1  0.99478000  0.46581000  0.30740000  1.0
