# generated using pymatgen
data_AgH16C28(I3N5)2
_symmetry_space_group_name_H-M   'P 1'
_cell_length_a   23.01915000
_cell_length_b   34.58650000
_cell_length_c   34.59390000
_cell_angle_alpha   89.98800000
_cell_angle_beta   90.00100000
_cell_angle_gamma   90.00000000
_symmetry_Int_Tables_number   1
_chemical_formula_structural   AgH16C28(I3N5)2
_chemical_formula_sum   'Ag8 H128 C224 I48 N80'
_cell_volume   27541.99623460
_cell_formula_units_Z   8
loop_
 _symmetry_equiv_pos_site_id
 _symmetry_equiv_pos_as_xyz
  1  'x, y, z'
loop_
 _atom_site_type_symbol
 _atom_site_label
 _atom_site_symmetry_multiplicity
 _atom_site_fract_x
 _atom_site_fract_y
 _atom_site_fract_z
 _atom_site_occupancy
  Ag  Ag0  1  0.62164000  0.77450000  0.54416000  1.0
  Ag  Ag1  1  0.39634000  0.54383000  0.15674000  1.0
  Ag  Ag2  1  0.10432000  0.13654000  0.40099000  1.0
  Ag  Ag3  1  0.85140000  0.38976000  0.77374000  1.0
  Ag  Ag4  1  0.64674000  0.14689000  0.51561000  1.0
  Ag  Ag5  1  0.37328000  0.52302000  0.78309000  1.0
  Ag  Ag6  1  0.14328000  0.77184500  0.39374000  1.0
  Ag  Ag7  1  0.90300000  0.37878000  0.14472000  1.0
  C  C8  1  0.62740000  0.89725000  0.56572000  1.0
  C  C9  1  0.64062000  0.85964000  0.55319000  1.0
  C  C10  1  0.55332000  0.83692000  0.58118000  1.0
  C  C11  1  0.54000000  0.87427000  0.59347000  1.0
  C  C12  1  0.54112000  0.71546000  0.63966000  1.0
  C  C13  1  0.56454000  0.72313000  0.60282000  1.0
  C  C14  1  0.62840000  0.76936000  0.62986000  1.0
  C  C15  1  0.60790000  0.76024000  0.66666667  1.0
  C  C16  1  0.76336000  0.74929000  0.46564000  1.0
  C  C17  1  0.72730000  0.76801000  0.49281000  1.0
  C  C18  1  0.67694000  0.70932000  0.50385500  1.0
  C  C19  1  0.71352000  0.69046000  0.47789000  1.0
  C  C20  1  0.47810000  0.75328000  0.46842000  1.0
  C  C21  1  0.51968000  0.75101000  0.49784000  1.0
  C  C22  1  0.56794000  0.80551000  0.47216000  1.0
  C  C23  1  0.52714000  0.80747000  0.44232000  1.0
  C  C24  1  0.39730000  0.55746000  0.03262000  1.0
  C  C25  1  0.40792000  0.54402000  0.07035000  1.0
  C  C26  1  0.33256000  0.58414000  0.09392000  1.0
  C  C27  1  0.32124000  0.59696000  0.05647000  1.0
  C  C28  1  0.38324000  0.65249000  0.21815000  1.0
  C  C29  1  0.37812000  0.61339000  0.20762000  1.0
  C  C30  1  0.42872000  0.62640000  0.14944000  1.0
  C  C31  1  0.43224000  0.66536000  0.15933000  1.0
  C  C32  1  0.54240000  0.47214000  0.18920000  1.0
  C  C33  1  0.50084000  0.49234000  0.16710000  1.0
  C  C34  1  0.47522000  0.52921000  0.22220000  1.0
  C  C35  1  0.51756000  0.51027500  0.24378000  1.0
  C  C36  1  0.25246000  0.46521000  0.15075000  1.0
  C  C37  1  0.29068000  0.49624000  0.14539000  1.0
  C  C38  1  0.34702000  0.47469000  0.19817000  1.0
  C  C39  1  0.30846000  0.44404000  0.20395000  1.0
  C  C40  1  0.05742000  0.01754000  0.42166000  1.0
  C  C41  1  0.08784000  0.05264000  0.41953000  1.0
  C  C42  1  0.00944000  0.08039000  0.38518000  1.0
  C  C43  1  0.97966000  0.04531000  0.38667000  1.0
  C  C44  1  0.01384000  0.18415000  0.30302000  1.0
  C  C45  1  0.04192000  0.18055000  0.33906000  1.0
  C  C46  1  0.09188000  0.12507000  0.31665000  1.0
  C  C47  1  0.06614000  0.12941000  0.28046000  1.0
  C  C48  1  0.28234000  0.17482000  0.41064000  1.0
  C  C49  1  0.23242000  0.15145000  0.40817000  1.0
  C  C50  1  0.17306000  0.20729000  0.41148000  1.0
  C  C51  1  0.22234000  0.23041000  0.41510000  1.0
  C  C52  1  0.01332000  0.17360000  0.50195000  1.0
  C  C53  1  0.03326000  0.16865000  0.46401000  1.0
  C  C54  1  0.10768000  0.12732000  0.48666000  1.0
  C  C55  1  0.08806000  0.13237000  0.52452000  1.0
  C  C56  1  0.79960000  0.38478000  0.89388000  1.0
  C  C57  1  0.82896000  0.39312000  0.85929000  1.0
  C  C58  1  0.77416000  0.34505000  0.82742000  1.0
  C  C59  1  0.74570000  0.33628000  0.86192000  1.0
  C  C60  1  0.78226000  0.29039000  0.71559000  1.0
  C  C61  1  0.79842000  0.32882000  0.72372000  1.0
  C  C62  1  0.87432000  0.30642000  0.76422000  1.0
  C  C63  1  0.86060000  0.26841000  0.75462000  1.0
  C  C64  1  0.01282000  0.42635000  0.72025000  1.0
  C  C65  1  0.97248000  0.40956000  0.74582000  1.0
  C  C66  1  0.89558000  0.43095000  0.70559000  1.0
  C  C67  1  0.93544000  0.44810000  0.68067000  1.0
  C  C68  1  0.74514000  0.49075000  0.76115000  1.0
  C  C69  1  0.76822000  0.45333000  0.75881000  1.0
  C  C70  1  0.84552000  0.47189000  0.79989000  1.0
  C  C71  1  0.82202000  0.50893000  0.80285000  1.0
  C  C72  1  0.48440000  0.17737000  0.45926000  1.0
  C  C73  1  0.53004000  0.15573000  0.47582000  1.0
  C  C74  1  0.56672000  0.21260000  0.50503000  1.0
  C  C75  1  0.52038000  0.23370000  0.49010000  1.0
  C  C76  1  0.80488000  0.20432000  0.48284000  1.0
  C  C77  1  0.76278000  0.18311000  0.50286000  1.0
  C  C78  1  0.69808000  0.19062000  0.45028000  1.0
  C  C79  1  0.74036000  0.21134000  0.43010000  1.0
  C  C80  1  0.66896000  0.02365000  0.50196000  1.0
  C  C81  1  0.65494000  0.05987000  0.51771000  1.0
  C  C82  1  0.65320000  0.08680000  0.45497000  1.0
  C  C83  1  0.66326000  0.05031000  0.43912000  1.0
  C  C84  1  0.69402000  0.19567000  0.62670000  1.0
  C  C85  1  0.67228000  0.19037000  0.58909000  1.0
  C  C86  1  0.70926000  0.12669000  0.58855000  1.0
  C  C87  1  0.73106000  0.13181000  0.62576000  1.0
  C  C88  1  0.20238000  0.49205000  0.74063000  1.0
  C  C89  1  0.25714000  0.49086000  0.75887000  1.0
  C  C90  1  0.26320000  0.55903000  0.75591000  1.0
  C  C91  1  0.20858000  0.56047000  0.73861000  1.0
  C  C92  1  0.53314000  0.48258000  0.73309000  1.0
  C  C93  1  0.49090000  0.50488000  0.75195000  1.0
  C  C94  1  0.42418000  0.45315000  0.74664000  1.0
  C  C95  1  0.46652000  0.43071000  0.72848000  1.0
  C  C96  1  0.41090000  0.49567000  0.90243000  1.0
  C  C97  1  0.40500000  0.51478000  0.86680000  1.0
  C  C98  1  0.35894000  0.45961000  0.84063000  1.0
  C  C99  1  0.36468000  0.44059000  0.87602000  1.0
  C  C100  1  0.42578000  0.62846000  0.72432000  1.0
  C  C101  1  0.41164000  0.58960000  0.73231000  1.0
  C  C102  1  0.40252000  0.60474000  0.79880000  1.0
  C  C103  1  0.41824000  0.64285000  0.79119000  1.0
  C  C104  1  0.95930000  0.74948000  0.40485000  1.0
  C  C105  1  0.01458000  0.76676000  0.40734000  1.0
  C  C106  1  0.05760000  0.70951000  0.38305000  1.0
  C  C107  1  0.00320000  0.69186000  0.38180000  1.0
  C  C108  1  0.26510000  0.73133000  0.47714000  1.0
  C  C109  1  0.23624000  0.74175000  0.44323000  1.0
  C  C110  1  0.15402000  0.76042000  0.47946000  1.0
  C  C111  1  0.18286000  0.75008000  0.51356000  1.0
  C  C112  1  0.16380000  0.89242000  0.42286000  1.0
  C  C113  1  0.14072000  0.85516000  0.41771000  1.0
  C  C114  1  0.22696000  0.83629000  0.38570000  1.0
  C  C115  1  0.24960000  0.87335000  0.39042000  1.0
  C  C116  1  0.25414000  0.73509000  0.29985000  1.0
  C  C117  1  0.22166000  0.73523000  0.33436000  1.0
  C  C118  1  0.16312000  0.78598000  0.31018000  1.0
  C  C119  1  0.19336000  0.78471000  0.27523000  1.0
  C  C120  1  0.73146000  0.40441000  0.18753000  1.0
  C  C121  1  0.77898000  0.39628000  0.16333000  1.0
  C  C122  1  0.84236000  0.39993000  0.21712000  1.0
  C  C123  1  0.79548000  0.40866000  0.24108000  1.0
  C  C124  1  0.03906000  0.46226000  0.12688000  1.0
  C  C125  1  0.00846000  0.42785000  0.13329000  1.0
  C  C126  1  0.92396000  0.46377000  0.14794000  1.0
  C  C127  1  0.95504000  0.49814000  0.14302000  1.0
  C  C128  1  0.89844000  0.39301000  0.02148000  1.0
  C  C129  1  0.88284000  0.39084000  0.06067000  1.0
  C  C130  1  0.97080000  0.35826000  0.07450000  1.0
  C  C131  1  0.98604000  0.35973000  0.03557000  1.0
  C  C132  1  0.91610000  0.27193000  0.20974000  1.0
  C  C133  1  0.91770000  0.31123000  0.19927000  1.0
  C  C134  1  0.89424000  0.29428000  0.13482000  1.0
  C  C135  1  0.89444000  0.25528000  0.14491000  1.0
  C  C136  1  0.42824000  0.72654000  0.46794000  1.0
  C  C137  1  0.37194000  0.74096000  0.47456000  1.0
  C  C138  1  0.32438000  0.71557000  0.47493000  1.0
  C  C139  1  0.33268000  0.67558000  0.46977000  1.0
  C  C140  1  0.38922000  0.66077000  0.46314000  1.0
  C  C141  1  0.43704000  0.68661000  0.46167000  1.0
  C  C142  1  0.20308000  0.45965000  0.12430000  1.0
  C  C143  1  0.14588000  0.46342000  0.13814000  1.0
  C  C144  1  0.09912000  0.46111000  0.11222000  1.0
  C  C145  1  0.10932000  0.45689000  0.07225000  1.0
  C  C146  1  0.16658000  0.45132000  0.05836000  1.0
  C  C147  1  0.21348000  0.45180000  0.08484000  1.0
  C  C148  1  0.86094000  0.21355000  0.50084000  1.0
  C  C149  1  0.90774000  0.18790000  0.49675000  1.0
  C  C150  1  0.96312000  0.19871000  0.51003000  1.0
  C  C151  1  0.97104000  0.23407000  0.52966000  1.0
  C  C152  1  0.92292000  0.25887000  0.53614000  1.0
  C  C153  1  0.86788000  0.24873000  0.52081000  1.0
  C  C154  1  0.59082000  0.49868000  0.72429000  1.0
  C  C155  1  0.63906000  0.48730000  0.74645000  1.0
  C  C156  1  0.69442000  0.50214000  0.73775000  1.0
  C  C157  1  0.70174000  0.52833000  0.70683000  1.0
  C  C158  1  0.65302000  0.54037000  0.68480000  1.0
  C  C159  1  0.59750000  0.52483000  0.69333000  1.0
  C  C160  1  0.48928000  0.69005000  0.64505000  1.0
  C  C161  1  0.48698000  0.66323000  0.67595000  1.0
  C  C162  1  0.43460000  0.64374000  0.68462000  1.0
  C  C163  1  0.38768000  0.64562000  0.65831000  1.0
  C  C164  1  0.39184000  0.66951000  0.62520000  1.0
  C  C165  1  0.43950000  0.69495000  0.62151000  1.0
  C  C166  1  0.36686000  0.66666667  0.25683000  1.0
  C  C167  1  0.31476000  0.68745000  0.26196000  1.0
  C  C168  1  0.30688000  0.71055000  0.29531000  1.0
  C  C169  1  0.35184000  0.71221000  0.32319000  1.0
  C  C170  1  0.39950000  0.68653000  0.32096000  1.0
  C  C171  1  0.40810000  0.66480000  0.28687000  1.0
  C  C172  1  0.92194000  0.25883000  0.25025000  1.0
  C  C173  1  0.96964000  0.23557000  0.26084000  1.0
  C  C174  1  0.96818000  0.21383000  0.29549000  1.0
  C  C175  1  0.91986000  0.21784000  0.32062000  1.0
  C  C176  1  0.87628000  0.24568000  0.31267000  1.0
  C  C177  1  0.87566000  0.26446000  0.27633000  1.0
  C  C178  1  0.73046000  0.27998000  0.69184000  1.0
  C  C179  1  0.73640000  0.25097000  0.66337000  1.0
  C  C180  1  0.68686000  0.23244000  0.64811000  1.0
  C  C181  1  0.63098000  0.24664000  0.65701000  1.0
  C  C182  1  0.62500000  0.27978000  0.68064000  1.0
  C  C183  1  0.67418000  0.29439000  0.70059000  1.0
  C  C184  1  0.68728000  0.99147000  0.52712000  1.0
  C  C185  1  0.64990000  0.96002000  0.53359000  1.0
  C  C186  1  0.66724000  0.92980000  0.55832000  1.0
  C  C187  1  0.72166000  0.93125000  0.57710000  1.0
  C  C188  1  0.76052000  0.96209000  0.56933000  1.0
  C  C189  1  0.74324000  0.99203000  0.54381000  1.0
  C  C190  1  0.43944000  0.51461000  0.93568000  1.0
  C  C191  1  0.40624000  0.52543000  0.96812000  1.0
  C  C192  1  0.43292000  0.54464000  0.99940000  1.0
  C  C193  1  0.49282000  0.55352000  0.99795000  1.0
  C  C194  1  0.52698000  0.54082000  0.96626000  1.0
  C  C195  1  0.49990000  0.52122000  0.93512000  1.0
  C  C196  1  0.08092000  0.98438000  0.44322000  1.0
  C  C197  1  0.10938000  0.95453000  0.42328000  1.0
  C  C198  1  0.13150000  0.92264000  0.44376000  1.0
  C  C199  1  0.12576000  0.92066000  0.48433000  1.0
  C  C200  1  0.09572000  0.95029000  0.50446000  1.0
  C  C201  1  0.07298000  0.98216000  0.48355000  1.0
  C  C202  1  0.85986000  0.41085000  0.99216000  1.0
  C  C203  1  0.84444000  0.38926000  0.95910000  1.0
  C  C204  1  0.81192000  0.40663000  0.92945000  1.0
  C  C205  1  0.79038000  0.44447000  0.93375000  1.0
  C  C206  1  0.80412000  0.46612000  0.96727000  1.0
  C  C207  1  0.84076000  0.44965000  0.99591000  1.0
  C  C208  1  0.90486000  0.77097000  0.41315000  1.0
  C  C209  1  0.86530000  0.75612000  0.44064000  1.0
  C  C210  1  0.80772000  0.77028000  0.44233000  1.0
  C  C211  1  0.79140000  0.80156000  0.41831000  1.0
  C  C212  1  0.83338000  0.82010000  0.39479000  1.0
  C  C213  1  0.88896000  0.80313000  0.39025000  1.0
  C  C214  1  0.67096000  0.40604000  0.17293000  1.0
  C  C215  1  0.63816000  0.43999000  0.17861000  1.0
  C  C216  1  0.57730000  0.43959000  0.17353000  1.0
  C  C217  1  0.55008000  0.40603000  0.15867000  1.0
  C  C218  1  0.58414000  0.37353000  0.14808000  1.0
  C  C219  1  0.64400000  0.37269000  0.15770000  1.0
  C  C220  1  0.34196000  0.15893000  0.40762000  1.0
  C  C221  1  0.38208000  0.16615000  0.43760000  1.0
  C  C222  1  0.44218000  0.16066000  0.43140000  1.0
  C  C223  1  0.46146000  0.14467000  0.39603000  1.0
  C  C224  1  0.42052000  0.13222000  0.36807000  1.0
  C  C225  1  0.36108000  0.14173000  0.37283000  1.0
  C  C226  1  0.07626000  0.42242000  0.72508000  1.0
  C  C227  1  0.10882000  0.45420000  0.73838000  1.0
  C  C228  1  0.16924000  0.45632000  0.73082000  1.0
  C  C229  1  0.19652000  0.42542000  0.71093000  1.0
  C  C230  1  0.16544000  0.39084000  0.70347000  1.0
  C  C231  1  0.10458000  0.39002000  0.70925000  1.0
  H  H232  1  0.68008000  0.85373000  0.53718000  1.0
  H  H233  1  0.52398000  0.81330000  0.58726000  1.0
  H  H234  1  0.50028000  0.87990000  0.60918000  1.0
  H  H235  1  0.54778000  0.70848000  0.57760000  1.0
  H  H236  1  0.66046000  0.79194000  0.62607000  1.0
  H  H237  1  0.62522000  0.77481000  0.69184000  1.0
  H  H238  1  0.73194000  0.79865000  0.49853000  1.0
  H  H239  1  0.64202000  0.69377000  0.51793000  1.0
  H  H240  1  0.70800000  0.65997000  0.47208000  1.0
  H  H241  1  0.51682000  0.72880000  0.51965000  1.0
  H  H242  1  0.60240000  0.82666000  0.47416000  1.0
  H  H243  1  0.53010000  0.82988000  0.42058000  1.0
  H  H244  1  0.44226000  0.52337000  0.07607000  1.0
  H  H245  1  0.30746000  0.59512000  0.11800000  1.0
  H  H246  1  0.28704000  0.61770000  0.05111000  1.0
  H  H247  1  0.35748000  0.59277000  0.22679000  1.0
  H  H248  1  0.44750000  0.61630000  0.12261000  1.0
  H  H249  1  0.45346000  0.68571000  0.14027000  1.0
  H  H250  1  0.49376000  0.48541000  0.13693000  1.0
  H  H251  1  0.44740000  0.55041000  0.23575000  1.0
  H  H252  1  0.52402000  0.51739000  0.27390000  1.0
  H  H253  1  0.28348000  0.51668000  0.12223000  1.0
  H  H254  1  0.38412000  0.47785000  0.21700000  1.0
  H  H255  1  0.31562000  0.42360000  0.22713000  1.0
  H  H256  1  0.13022000  0.05570000  0.43282000  1.0
  H  H257  1  0.98980000  0.10510000  0.37130000  1.0
  H  H258  1  0.93710000  0.04257000  0.37373000  1.0
  H  H259  1  0.03254000  0.20037000  0.36248000  1.0
  H  H260  1  0.12062000  0.10095000  0.32235000  1.0
  H  H261  1  0.07584000  0.10931000  0.25741000  1.0
  H  H262  1  0.23596000  0.12032000  0.40553000  1.0
  H  H263  1  0.13018000  0.22015000  0.41149000  1.0
  H  H264  1  0.21822000  0.26140000  0.41810000  1.0
  H  H265  1  0.01184000  0.18284000  0.43997000  1.0
  H  H266  1  0.14468000  0.10897000  0.48070000  1.0
  H  H267  1  0.10974000  0.11803000  0.54827000  1.0
  H  H268  1  0.86184000  0.41543000  0.85848000  1.0
  H  H269  1  0.76334000  0.32920000  0.80168000  1.0
  H  H270  1  0.71316000  0.31375000  0.86279000  1.0
  H  H271  1  0.77444000  0.35294000  0.71175000  1.0
  H  H272  1  0.90858000  0.31255000  0.78477000  1.0
  H  H273  1  0.88525000  0.24466000  0.76666000  1.0
  H  H274  1  0.98690000  0.39424000  0.77141000  1.0
  H  H275  1  0.84958000  0.43264000  0.69947000  1.0
  H  H276  1  0.92072000  0.46329000  0.65515000  1.0
  H  H277  1  0.74782000  0.43142000  0.74099000  1.0
  H  H278  1  0.88576000  0.46484000  0.81446000  1.0
  H  H279  1  0.84336000  0.53078000  0.82011000  1.0
  H  H280  1  0.53454000  0.12514000  0.46984000  1.0
  H  H281  1  0.60026000  0.22719000  0.52119000  1.0
  H  H282  1  0.51680000  0.26436000  0.49571000  1.0
  H  H283  1  0.77194000  0.17205000  0.53145000  1.0
  H  H284  1  0.65588000  0.18560000  0.43747000  1.0
  H  H285  1  0.73142000  0.22240000  0.40145000  1.0
  H  H286  1  0.65100000  0.06333000  0.54864000  1.0
  H  H287  1  0.64976000  0.11181000  0.43641000  1.0
  H  H288  1  0.66622000  0.04666000  0.40814000  1.0
  H  H289  1  0.65080000  0.21384000  0.57432000  1.0
  H  H290  1  0.71832000  0.10026000  0.57332000  1.0
  H  H291  1  0.75508000  0.10891000  0.63982000  1.0
  H  H292  1  0.27640000  0.46355000  0.76704000  1.0
  H  H293  1  0.28670000  0.58550000  0.76142000  1.0
  H  H294  1  0.18944000  0.58796000  0.73086000  1.0
  H  H295  1  0.50046000  0.53411000  0.76117000  1.0
  H  H296  1  0.38120000  0.44157000  0.75158000  1.0
  H  H297  1  0.45678000  0.40152000  0.71935000  1.0
  H  H298  1  0.42184000  0.54372000  0.86306000  1.0
  H  H299  1  0.33902000  0.44496000  0.81646000  1.0
  H  H300  1  0.34890000  0.41135000  0.87948000  1.0
  H  H301  1  0.40874000  0.56847000  0.70928000  1.0
  H  H302  1  0.39184000  0.59601000  0.82792000  1.0
  H  H303  1  0.42086000  0.66371000  0.81439000  1.0
  H  H304  1  0.01948000  0.79625000  0.41737000  1.0
  H  H305  1  0.09602000  0.69393000  0.37392000  1.0
  H  H306  1  0.99888000  0.66233000  0.37195000  1.0
  H  H307  1  0.25736000  0.73881000  0.41565000  1.0
  H  H308  1  0.11044000  0.77214000  0.48042000  1.0
  H  H309  1  0.16172000  0.75356000  0.54126000  1.0
  H  H310  1  0.09812000  0.84777000  0.42876000  1.0
  H  H311  1  0.25220000  0.81430000  0.37135000  1.0
  H  H312  1  0.29242000  0.88034000  0.37964000  1.0
  H  H313  1  0.23256000  0.71565000  0.35761000  1.0
  H  H314  1  0.12908000  0.80711000  0.31464000  1.0
  H  H315  1  0.18196000  0.80416000  0.25195000  1.0
  H  H316  1  0.77296000  0.39162000  0.13262000  1.0
  H  H317  1  0.88586000  0.39821000  0.22884000  1.0
  H  H318  1  0.80214000  0.41370000  0.27160000  1.0
  H  H319  1  0.02975000  0.40023000  0.12957000  1.0
  H  H320  1  0.87822000  0.46462000  0.15512000  1.0
  H  H321  1  0.93386000  0.52576000  0.14692000  1.0
  H  H322  1  0.84196000  0.40252000  0.07088000  1.0
  H  H323  1  0.99952000  0.34477000  0.09527000  1.0
  H  H324  1  0.02654000  0.34732000  0.02573000  1.0
  H  H325  1  0.92658000  0.33333333  0.22067000  1.0
  H  H326  1  0.88442000  0.30279000  0.10545000  1.0
  H  H327  1  0.88540000  0.23338000  0.12345000  1.0
  H  H328  1  0.36378000  0.60205000  0.45861000  1.0
  H  H329  1  0.43812000  0.60975000  0.45338000  1.0
  H  H330  1  0.14342000  0.44395000  0.99949000  1.0
  H  H331  1  0.21784000  0.44241000  0.00823000  1.0
  H  H332  1  0.96868000  0.30041000  0.56931000  1.0
  H  H333  1  0.89562000  0.31135000  0.56201000  1.0
  H  H334  1  0.69906000  0.57950000  0.64892000  1.0
  H  H335  1  0.62508000  0.57660000  0.63899000  1.0
  H  H336  1  0.31412000  0.65041000  0.59829000  1.0
  H  H337  1  0.35348000  0.68425000  0.57162000  1.0
  H  H338  1  0.43012000  0.69721000  0.37754000  1.0
  H  H339  1  0.47288000  0.66499000  0.35111000  1.0
  H  H340  1  0.83542000  0.24236000  0.36743000  1.0
  H  H341  1  0.80208000  0.27413000  0.33529000  1.0
  H  H342  1  0.53528000  0.28802000  0.66969000  1.0
  H  H343  1  0.56564000  0.32247000  0.70017000  1.0
  H  H344  1  0.82928000  0.94122000  0.60438500  1.0
  H  H345  1  0.84344000  0.98544000  0.58232000  1.0
  H  H346  1  0.60764000  0.56048000  0.98845000  1.0
  H  H347  1  0.61218000  0.53946000  0.94289000  1.0
  H  H348  1  0.10402000  0.92519000  0.56009000  1.0
  H  H349  1  0.06789000  0.96944000  0.55963000  1.0
  H  H350  1  0.75612000  0.51604000  0.95146000  1.0
  H  H351  1  0.78908000  0.51914000  0.99651000  1.0
  H  H352  1  0.78076000  0.86815000  0.38012000  1.0
  H  H353  1  0.84966000  0.86898000  0.35941000  1.0
  H  H354  1  0.51616000  0.34287000  0.12037000  1.0
  H  H355  1  0.58270000  0.31896000  0.12020000  1.0
  H  H356  1  0.48118000  0.10288000  0.33259000  1.0
  H  H357  1  0.41006000  0.10148000  0.31552000  1.0
  H  H358  1  0.23892000  0.35764000  0.68773000  1.0
  H  H359  1  0.17302000  0.33294000  0.68406000  1.0
  I  I360  1  0.35790000  0.80147000  0.48492000  1.0
  I  I361  1  0.25774000  0.63857000  0.47158000  1.0
  I  I362  1  0.52296000  0.66663000  0.44730000  1.0
  I  I363  1  0.12946000  0.47416000  0.19818000  1.0
  I  I364  1  0.03716000  0.46132000  0.03340000  1.0
  I  I365  1  0.30060000  0.43808000  0.06670000  1.0
  I  I366  1  0.89374000  0.13169000  0.47215000  1.0
  I  I367  1  0.05734000  0.25031000  0.54705000  1.0
  I  I368  1  0.79334000  0.28564000  0.52740000  1.0
  I  I369  1  0.62742000  0.44837000  0.79407000  1.0
  I  I370  1  0.78824000  0.54697000  0.69228000  1.0
  I  I371  1  0.52282000  0.53851000  0.65851000  1.0
  I  I372  1  0.56270000  0.65022000  0.70964000  1.0
  I  I373  1  0.30746000  0.61681000  0.67117000  1.0
  I  I374  1  0.42812000  0.74653000  0.58765000  1.0
  I  I375  1  0.24864000  0.68290000  0.21867000  1.0
  I  I376  1  0.35638000  0.75991000  0.36269000  1.0
  I  I377  1  0.48590000  0.63147000  0.27834000  1.0
  I  I378  1  0.04464000  0.23500000  0.22403000  1.0
  I  I379  1  0.90518000  0.17661000  0.36605000  1.0
  I  I380  1  0.80158000  0.29789000  0.25841000  1.0
  I  I381  1  0.82084000  0.23629000  0.64125000  1.0
  I  I382  1  0.55520000  0.21468000  0.63933000  1.0
  I  I383  1  0.66046000  0.33344000  0.74809000  1.0
  I  I384  1  0.56728000  0.95802000  0.50504000  1.0
  I  I385  1  0.74216000  0.88762000  0.61934000  1.0
  I  I386  1  0.80216000  0.03766000  0.52782000  1.0
  I  I387  1  0.31492000  0.51268000  0.96959000  1.0
  I  I388  1  0.52966000  0.58980000  0.04220000  1.0
  I  I389  1  0.54960000  0.49933000  0.88726000  1.0
  I  I390  1  0.11810000  0.95750000  0.36162000  1.0
  I  I391  1  0.16628000  0.87340000  0.51454000  1.0
  I  I392  1  0.02452000  0.02732000  0.51165000  1.0
  I  I393  1  0.86820000  0.32930000  0.95380000  1.0
  I  I394  1  0.73452000  0.46729000  0.88943000  1.0
  I  I395  1  0.87174000  0.48464000  0.04307000  1.0
  I  I396  1  0.89402000  0.71291000  0.48079000  1.0
  I  I397  1  0.70124000  0.81607000  0.41147000  1.0
  I  I398  1  0.94570000  0.82251000  0.34467000  1.0
  I  I399  1  0.68172000  0.49283000  0.19349000  1.0
  I  I400  1  0.45676000  0.40187000  0.15806000  1.0
  I  I401  1  0.69230000  0.31949000  0.15417000  1.0
  I  I402  1  0.35102000  0.18474000  0.49304000  1.0
  I  I403  1  0.55218000  0.14624000  0.38137000  1.0
  I  I404  1  0.30144000  0.13537000  0.32530000  1.0
  I  I405  1  0.06446000  0.49795000  0.77093000  1.0
  I  I406  1  0.28010000  0.43379000  0.68428000  1.0
  I  I407  1  0.05296000  0.34127000  0.69172000  1.0
  N  N408  1  0.60362000  0.83024000  0.56173000  1.0
  N  N409  1  0.57740000  0.90356000  0.58565000  1.0
  N  N410  1  0.56386000  0.73441000  0.67064000  1.0
  N  N411  1  0.60526000  0.75141000  0.59852000  1.0
  N  N412  1  0.68412000  0.74768000  0.51059000  1.0
  N  N413  1  0.75516000  0.71088000  0.45908000  1.0
  N  N414  1  0.48300000  0.78143000  0.44115000  1.0
  N  N415  1  0.56368000  0.77704000  0.49905000  1.0
  N  N416  1  0.37614000  0.55837000  0.10023000  1.0
  N  N417  1  0.35420000  0.58372000  0.02678000  1.0
  N  N418  1  0.41004000  0.67745000  0.19356000  1.0
  N  N419  1  0.40134000  0.60120000  0.17350000  1.0
  N  N420  1  0.46702000  0.51957000  0.18455000  1.0
  N  N421  1  0.54942000  0.48189000  0.22703000  1.0
  N  N422  1  0.26230000  0.43973000  0.17992000  1.0
  N  N423  1  0.33794000  0.49991000  0.16858000  1.0
  N  N424  1  0.06298000  0.08342000  0.40150000  1.0
  N  N425  1  0.00406000  0.01472000  0.40507000  1.0
  N  N426  1  0.02698000  0.15819000  0.27475000  1.0
  N  N427  1  0.07832000  0.15015000  0.34544000  1.0
  N  N428  1  0.17908000  0.16843000  0.40772000  1.0
  N  N429  1  0.27568000  0.21377000  0.41417000  1.0
  N  N430  1  0.04124000  0.15525000  0.53136000  1.0
  N  N431  1  0.07952000  0.14535000  0.45723000  1.0
  N  N432  1  0.81482000  0.37362000  0.82646000  1.0
  N  N433  1  0.75860000  0.35654000  0.89433000  1.0
  N  N434  1  0.81432000  0.26129000  0.73139000  1.0
  N  N435  1  0.84216000  0.33573500  0.74936000  1.0
  N  N436  1  0.91464000  0.41232000  0.73780000  1.0
  N  N437  1  0.99296000  0.44529000  0.68842000  1.0
  N  N438  1  0.77254000  0.51760000  0.78336000  1.0
  N  N439  1  0.81768000  0.44471500  0.77841000  1.0
  N  N440  1  0.57090000  0.17410000  0.49772000  1.0
  N  N441  1  0.48096000  0.21583000  0.46717000  1.0
  N  N442  1  0.79272000  0.21793000  0.44687000  1.0
  N  N443  1  0.71008000  0.17693000  0.48624000  1.0
  N  N444  1  0.64978000  0.09104000  0.49396000  1.0
  N  N445  1  0.67236000  0.01970000  0.46293000  1.0
  N  N446  1  0.72258000  0.16597000  0.64408000  1.0
  N  N447  1  0.67848000  0.15547000  0.57131000  1.0
  N  N448  1  0.28734000  0.52426000  0.76468000  1.0
  N  N449  1  0.18006000  0.52710000  0.73072000  1.0
  N  N450  1  0.51996000  0.44595000  0.72190000  1.0
  N  N451  1  0.43708000  0.48978000  0.75788000  1.0
  N  N452  1  0.37924000  0.49630000  0.83660000  1.0
  N  N453  1  0.39062000  0.45895000  0.90608000  1.0
  N  N454  1  0.42896000  0.65386000  0.75427000  1.0
  N  N455  1  0.39956000  0.57881000  0.76941000  1.0
  N  N456  1  0.06216000  0.74664000  0.39535000  1.0
  N  N457  1  0.95538000  0.71232000  0.39220000  1.0
  N  N458  1  0.23780000  0.73570000  0.51171000  1.0
  N  N459  1  0.18144000  0.75589000  0.44498000  1.0
  N  N460  1  0.17312000  0.82784000  0.39942000  1.0
  N  N461  1  0.21770000  0.90054000  0.40902000  1.0
  N  N462  1  0.23880000  0.76001000  0.27117000  1.0
  N  N463  1  0.17848000  0.76177000  0.33935000  1.0
  N  N464  1  0.83309000  0.39334000  0.17893000  1.0
  N  N465  1  0.74122000  0.41037000  0.22586000  1.0
  N  N466  1  0.01168000  0.49669000  0.13205000  1.0
  N  N467  1  0.95114000  0.42928000  0.14269000  1.0
  N  N468  1  0.92046000  0.37492000  0.08643000  1.0
  N  N469  1  0.95004000  0.37751000  0.01011000  1.0
  N  N470  1  0.90480000  0.24502000  0.18210000  1.0
  N  N471  1  0.90592000  0.32152000  0.16204000  1.0
  N  N472  1  0.39748000  0.62211000  0.45795000  1.0
  N  N473  1  0.17648000  0.44557000  0.01994000  1.0
  N  N474  1  0.92956000  0.29219000  0.55670000  1.0
  N  N475  1  0.65950000  0.56665000  0.65576000  1.0
  N  N476  1  0.34982000  0.66882000  0.59741000  1.0
  N  N477  1  0.43712000  0.68340000  0.35120000  1.0
  N  N478  1  0.83474000  0.25375000  0.33957000  1.0
  N  N479  1  0.57208000  0.29706000  0.68463000  1.0
  N  N480  1  0.81394000  0.96298000  0.58629000  1.0
  N  N481  1  0.58536000  0.54746000  0.96574000  1.0
  N  N482  1  0.08890000  0.94821000  0.54353000  1.0
  N  N483  1  0.78234000  0.50250000  0.97187000  1.0
  N  N484  1  0.82000000  0.85370000  0.37621000  1.0
  N  N485  1  0.55932000  0.34303000  0.12937000  1.0
  N  N486  1  0.43844000  0.11195000  0.33646000  1.0
  N  N487  1  0.19384000  0.35895000  0.69018000  1.0
