# generated using pymatgen
data_DyH4C16(O2F)4
_symmetry_space_group_name_H-M   'P 1'
_cell_length_a   18.60050000
_cell_length_b   46.95110965
_cell_length_c   46.95040000
_cell_angle_alpha   120.00050000
_cell_angle_beta   90.00000000
_cell_angle_gamma   90.00000000
_symmetry_Int_Tables_number   1
_chemical_formula_structural   DyH4C16(O2F)4
_chemical_formula_sum   'Dy18 H72 C288 O144 F72'
_cell_volume   35508.98183690
_cell_formula_units_Z   18
loop_
 _symmetry_equiv_pos_site_id
 _symmetry_equiv_pos_as_xyz
  1  'x, y, z'
loop_
 _atom_site_type_symbol
 _atom_site_label
 _atom_site_symmetry_multiplicity
 _atom_site_fract_x
 _atom_site_fract_y
 _atom_site_fract_z
 _atom_site_occupancy
  C  C0  1  0.90660000  0.81770000  0.05096000  1.0
  C  C1  1  0.65588000  0.83374000  0.11884000  1.0
  C  C2  1  0.89386000  0.83629000  0.13954000  1.0
  C  C3  1  0.86550000  0.91128000  0.11229000  1.0
  C  C4  1  0.89646000  0.93218000  0.81495000  1.0
  C  C5  1  0.68206000  0.83926000  0.72559000  1.0
  C  C6  1  0.94038000  0.85236000  0.71523000  1.0
  C  C7  1  0.87190000  0.84622000  0.80034000  1.0
  C  C8  1  0.08832000  0.75570000  0.93967000  1.0
  C  C9  1  0.18938000  0.68750000  0.83696000  1.0
  C  C10  1  0.94948000  0.67577000  0.84848000  1.0
  C  C11  1  0.99294000  0.76908000  0.85241000  1.0
  C  C12  1  0.68388000  0.53675000  0.83586000  1.0
  C  C13  1  0.43662000  0.60669000  0.82696000  1.0
  C  C14  1  0.67950000  0.60595000  0.81962000  1.0
  C  C15  1  0.58906000  0.52982000  0.73926000  1.0
  C  C16  1  0.83910000  0.45517000  0.87096000  1.0
  C  C17  1  0.95208000  0.42692000  0.91797000  1.0
  C  C18  1  0.69546000  0.42448000  0.93597000  1.0
  C  C19  1  0.77436000  0.49218000  0.52358000  1.0
  C  C20  1  0.55658000  0.47969000  0.52455000  1.0
  C  C21  1  0.65082000  0.46281000  0.60062000  1.0
  C  C22  1  0.16870000  0.48921000  0.40015000  1.0
  C  C23  1  0.02830000  0.52757000  0.47631000  1.0
  C  C24  1  0.28376000  0.51833000  0.49719000  1.0
  C  C25  1  0.21560000  0.60329000  0.48745000  1.0
  C  C26  1  0.07730000  0.87421000  0.48386000  1.0
  C  C27  1  0.97282000  0.91316000  0.44573000  1.0
  C  C28  1  0.22924000  0.93287000  0.44850000  1.0
  C  C29  1  0.16226000  0.83331000  0.37207000  1.0
  C  C30  1  0.29162000  0.56073000  0.05911000  1.0
  C  C31  1  0.17622000  0.48692000  0.01576000  1.0
  C  C32  1  0.43464000  0.46658000  0.01223000  1.0
  C  C33  1  0.31114000  0.48890000  0.10422000  1.0
  C  C34  1  0.31002000  0.43309000  0.18712000  1.0
  C  C35  1  0.21024000  0.84014000  0.57173000  1.0
  C  C36  1  0.46186000  0.80316000  0.62593000  1.0
  C  C37  1  0.20428000  0.82220000  0.64096000  1.0
  C  C38  1  0.29092000  0.74064000  0.56313000  1.0
  C  C39  1  0.31094000  0.70228000  0.12621000  1.0
  C  C40  1  0.40880000  0.80828000  0.17865000  1.0
  C  C41  1  0.16698000  0.79733000  0.16659000  1.0
  C  C42  1  0.24960000  0.77261000  0.23902000  1.0
  C  C43  1  0.47066000  0.81635000  0.16382000  1.0
  C  C44  1  0.47962000  0.79948000  0.12952000  1.0
  C  C45  1  0.53914000  0.80561000  0.11522000  1.0
  C  C46  1  0.59154000  0.82883000  0.13475000  1.0
  C  C47  1  0.58216000  0.84627000  0.16912000  1.0
  C  C48  1  0.52242000  0.84010000  0.18350000  1.0
  C  C49  1  0.51788000  0.80864000  0.65077000  1.0
  C  C50  1  0.59056000  0.81038000  0.64351000  1.0
  C  C51  1  0.64364000  0.81933000  0.66754000  1.0
  C  C52  1  0.62570000  0.82683000  0.69962000  1.0
  C  C53  1  0.55328000  0.82367000  0.70664000  1.0
  C  C54  1  0.49996000  0.81467000  0.68247000  1.0
  C  C55  1  0.37502000  0.62797000  0.82893000  1.0
  C  C56  1  0.32348000  0.63692000  0.85395000  1.0
  C  C57  1  0.26404000  0.65616000  0.85635000  1.0
  C  C58  1  0.25390000  0.66722000  0.83384000  1.0
  C  C59  1  0.30566000  0.65856000  0.80877000  1.0
  C  C60  1  0.36556000  0.63912000  0.80635000  1.0
  C  C61  1  0.78854000  0.95319000  0.46830000  1.0
  C  C62  1  0.84268000  0.92943000  0.45408000  1.0
  C  C63  1  0.91540000  0.93814000  0.46167000  1.0
  C  C64  1  0.00972000  0.44440000  0.94243000  1.0
  C  C65  1  0.08210000  0.43545000  0.93404000  1.0
  C  C66  1  0.13646000  0.45014000  0.95756000  1.0
  C  C67  1  0.11972000  0.47412000  0.99003000  1.0
  C  C68  1  0.04758000  0.48415000  0.99811000  1.0
  C  C69  1  0.99324000  0.46945000  0.97461000  1.0
  C  C70  1  0.83678000  0.49949000  0.50857000  1.0
  C  C71  1  0.89538000  0.47773000  0.49577000  1.0
  C  C72  1  0.95766000  0.48665000  0.48510000  1.0
  C  C73  1  0.96176000  0.51713000  0.48624000  1.0
  C  C74  1  0.90178000  0.53833000  0.49799000  1.0
  C  C75  1  0.84050000  0.52973000  0.50927000  1.0
  C  C76  1  0.96004000  0.82597000  0.14908000  1.0
  C  C77  1  0.98796000  0.79458000  0.12791333  1.0
  C  C78  1  0.05602000  0.78594000  0.13339000  1.0
  C  C79  1  0.09756000  0.80834000  0.16033000  1.0
  C  C80  1  0.06926000  0.83964000  0.18203000  1.0
  C  C81  1  0.00102000  0.84846000  0.17637000  1.0
  C  C82  1  0.00626000  0.84516000  0.69524000  1.0
  C  C83  1  0.03342000  0.81294000  0.67888000  1.0
  C  C84  1  0.09816000  0.80575000  0.66161000  1.0
  C  C85  1  0.13780000  0.83072000  0.66075000  1.0
  C  C86  1  0.11092000  0.86310000  0.67715000  1.0
  C  C87  1  0.04534000  0.87023000  0.69411000  1.0
  C  C88  1  0.74810000  0.62418000  0.82727000  1.0
  C  C89  1  0.78852000  0.62411000  0.80196000  1.0
  C  C90  1  0.85542000  0.63980000  0.80861000  1.0
  C  C91  1  0.88366000  0.65549000  0.84063000  1.0
  C  C92  1  0.84390000  0.65483000  0.86587000  1.0
  C  C93  1  0.77662000  0.63951000  0.85927000  1.0
  C  C94  1  0.31714000  0.96812000  0.49085000  1.0
  C  C95  1  0.29162000  0.95516000  0.45864000  1.0
  C  C96  1  0.33020000  0.96120000  0.43637000  1.0
  C  C97  1  0.50200000  0.45453000  0.99327000  1.0
  C  C98  1  0.53904000  0.47567000  0.98534000  1.0
  C  C99  1  0.60302000  0.46596000  0.96784000  1.0
  C  C100  1  0.63210000  0.43482000  0.95775000  1.0
  C  C101  1  0.59634000  0.41359000  0.96616000  1.0
  C  C102  1  0.53134000  0.42340000  0.98383000  1.0
  C  C103  1  0.34930000  0.50849000  0.50765000  1.0
  C  C104  1  0.37844000  0.47749000  0.48607000  1.0
  C  C105  1  0.44638000  0.46897000  0.49151000  1.0
  C  C106  1  0.48714000  0.49111000  0.51882000  1.0
  C  C107  1  0.45770000  0.52203000  0.54114000  1.0
  C  C108  1  0.38898000  0.53071000  0.53554000  1.0
  C  C109  1  0.06046000  0.77685000  0.97354000  1.0
  C  C110  1  0.04876000  0.76273000  0.99340000  1.0
  C  C111  1  0.00236000  0.77760000  0.02022000  1.0
  C  C112  1  0.96822000  0.80731000  0.02834000  1.0
  C  C113  1  0.98662000  0.82372000  0.01127000  1.0
  C  C114  1  0.03232000  0.80850000  0.98384000  1.0
  C  C115  1  0.95044000  0.95593000  0.83769000  1.0
  C  C116  1  0.07360000  0.96906000  0.85772000  1.0
  C  C117  1  0.02012000  0.94575000  0.84035000  1.0
  C  C118  1  0.90156000  0.82988000  0.81754000  1.0
  C  C119  1  0.97636000  0.82909000  0.82132000  1.0
  C  C120  1  0.00620000  0.80963000  0.83310000  1.0
  C  C121  1  0.96160000  0.79133000  0.84207000  1.0
  C  C122  1  0.88642000  0.79341000  0.83981000  1.0
  C  C123  1  0.85674000  0.81225000  0.82728000  1.0
  C  C124  1  0.98208000  0.94128000  0.12519000  1.0
  C  C125  1  0.90684000  0.94168000  0.12255000  1.0
  C  C126  1  0.87138000  0.97193000  0.13465000  1.0
  C  C127  1  0.81608000  0.47377000  0.85477000  1.0
  C  C128  1  0.76570000  0.46008000  0.82897000  1.0
  C  C129  1  0.72602000  0.48039000  0.82088000  1.0
  C  C130  1  0.73596000  0.51460000  0.83864000  1.0
  C  C131  1  0.79182000  0.52781000  0.86183000  1.0
  C  C132  1  0.83198000  0.50753000  0.86963000  1.0
  C  C133  1  0.63870000  0.47619000  0.63616000  1.0
  C  C134  1  0.57196000  0.47187000  0.64757000  1.0
  C  C135  1  0.55616000  0.48871000  0.68124000  1.0
  C  C136  1  0.60640000  0.51055000  0.70394000  1.0
  C  C137  1  0.67416000  0.51394000  0.69265000  1.0
  C  C138  1  0.69038000  0.49675000  0.65915000  1.0
  C  C139  1  0.28090000  0.43171000  0.30808000  1.0
  C  C140  1  0.20650000  0.43574000  0.35259000  1.0
  C  C141  1  0.20210000  0.47010000  0.36702000  1.0
  C  C142  1  0.23704000  0.48520000  0.35132000  1.0
  C  C143  1  0.27582000  0.46613000  0.32199000  1.0
  C  C144  1  0.16298000  0.84448000  0.54894000  1.0
  C  C145  1  0.12136000  0.87313000  0.56109000  1.0
  C  C146  1  0.08666000  0.88091000  0.53959000  1.0
  C  C147  1  0.09368000  0.86045000  0.50542000  1.0
  C  C148  1  0.12886000  0.82993000  0.49322000  1.0
  C  C149  1  0.16328000  0.82200000  0.51489000  1.0
  C  C150  1  0.29342000  0.59700000  0.07611000  1.0
  C  C151  1  0.29642000  0.61535000  0.11059000  1.0
  C  C152  1  0.30466000  0.64945000  0.12676000  1.0
  C  C153  1  0.30956000  0.66598000  0.10882000  1.0
  C  C154  1  0.30658000  0.64762000  0.07425000  1.0
  C  C155  1  0.29838000  0.61351000  0.05807000  1.0
  C  C156  1  0.22952000  0.78006000  0.27237000  1.0
  C  C157  1  0.15640000  0.78109000  0.28029000  1.0
  C  C158  1  0.13466000  0.79610000  0.31305000  1.0
  C  C159  1  0.18574000  0.80978000  0.33837000  1.0
  C  C160  1  0.25942000  0.80534000  0.33034000  1.0
  C  C161  1  0.28114000  0.79080000  0.29748000  1.0
  C  C162  1  0.30836000  0.48200000  0.13152000  1.0
  C  C163  1  0.37256000  0.47906000  0.14546000  1.0
  C  C164  1  0.37206000  0.46535000  0.16582000  1.0
  C  C165  1  0.30732000  0.45478000  0.17291000  1.0
  C  C166  1  0.24218000  0.46081000  0.16170000  1.0
  C  C167  1  0.24274000  0.47419000  0.14094000  1.0
  C  C168  1  0.27122000  0.70569000  0.54236000  1.0
  C  C169  1  0.32106000  0.68266000  0.52053000  1.0
  C  C170  1  0.30222000  0.64939000  0.50163000  1.0
  C  C171  1  0.23280000  0.63877000  0.50377000  1.0
  C  C172  1  0.18202000  0.66218000  0.52460000  1.0
  C  C173  1  0.20124000  0.69521000  0.54390000  1.0
  C  C174  1  0.02052000  0.97074000  0.14229000  1.0
  C  C175  1  0.78158000  0.34229000  0.84282000  1.0
  C  C176  1  0.68468000  0.38284000  0.48366000  1.0
  C  C177  1  0.31562000  0.41014000  0.27569000  1.0
  C  C178  1  0.44676000  0.34188000  0.17113000  1.0
  C  C179  1  0.21280000  0.33985000  0.17529000  1.0
  C  C180  1  0.51300000  0.32190000  0.16584000  1.0
  C  C181  1  0.56042000  0.31484000  0.13954000  1.0
  C  C182  1  0.14718000  0.31939000  0.16335000  1.0
  C  C183  1  0.66450000  0.34758000  0.46446000  1.0
  C  C184  1  0.66014000  0.33254000  0.43005000  1.0
  C  C185  1  0.64182000  0.32971000  0.47963000  1.0
  C  C186  1  0.76814000  0.30664000  0.82303000  1.0
  C  C187  1  0.24566000  0.41697000  0.32388000  1.0
  C  C188  1  0.93266000  0.97104000  0.48455000  1.0
  C  C189  1  0.11038000  0.31229000  0.18518000  1.0
  C  C190  1  0.53032000  0.31002000  0.18711000  1.0
  C  C191  1  0.70450000  0.26323000  0.15045000  1.0
  C  C192  1  0.94492000  0.26811000  0.13752000  1.0
  C  C193  1  0.59274000  0.29137000  0.18215000  1.0
  C  C194  1  0.63984000  0.28413000  0.15583000  1.0
  C  C195  1  0.62298000  0.29626000  0.13466000  1.0
  C  C196  1  0.04416000  0.29642000  0.17676000  1.0
  C  C197  1  0.01270000  0.28705000  0.14618000  1.0
  C  C198  1  0.04940000  0.29374000  0.12392000  1.0
  C  C199  1  0.11638000  0.30982000  0.13245000  1.0
  C  C200  1  0.63344000  0.30074000  0.41121000  1.0
  C  C201  1  0.61068000  0.28272000  0.42606000  1.0
  C  C202  1  0.61508000  0.29756000  0.46060000  1.0
  C  C203  1  0.82590000  0.28463000  0.81471000  1.0
  C  C204  1  0.68488000  0.26107000  0.80617000  1.0
  C  C205  1  0.69742000  0.29432000  0.81712000  1.0
  C  C206  1  0.59056000  0.24765000  0.40478000  1.0
  C  C207  1  0.81334000  0.25133000  0.80327000  1.0
  C  C208  1  0.74280000  0.23963000  0.80044000  1.0
  C  C209  1  0.73032000  0.20629000  0.79492000  1.0
  C  C210  1  0.02692000  0.20006000  0.19561000  1.0
  C  C211  1  0.93382000  0.19539000  0.15592000  1.0
  C  C212  1  0.93274000  0.18601000  0.06834000  1.0
  C  C213  1  0.07524000  0.18591000  0.20755000  1.0
  C  C214  1  0.99390000  0.18098000  0.16490000  1.0
  C  C215  1  0.02524000  0.18564000  0.02965000  1.0
  C  C216  1  0.71782000  0.15030000  0.34774000  1.0
  C  C217  1  0.60292000  0.16817000  0.43950000  1.0
  C  C218  1  0.45844000  0.15255000  0.85710000  1.0
  C  C219  1  0.89536000  0.15265000  0.31021000  1.0
  C  C220  1  0.82816000  0.16142000  0.32523000  1.0
  C  C221  1  0.09040000  0.15210000  0.18938000  1.0
  C  C222  1  0.98464000  0.16841000  0.04135000  1.0
  C  C223  1  0.07296000  0.16889000  0.00341000  1.0
  C  C224  1  0.60444000  0.15886000  0.46515000  1.0
  C  C225  1  0.67036000  0.15159000  0.47456000  1.0
  C  C226  1  0.54016000  0.15275000  0.47698000  1.0
  C  C227  1  0.12206000  0.13590000  0.20665000  1.0
  C  C228  1  0.24278000  0.09024000  0.24864000  1.0
  C  C229  1  0.98954000  0.11115000  0.27927000  1.0
  C  C230  1  0.02220000  0.03176000  0.17967000  1.0
  C  C231  1  0.11742000  0.02732000  0.88433000  1.0
  C  C232  1  0.32590000  0.09403000  0.86277000  1.0
  C  C233  1  0.08242000  0.10682000  0.86557000  1.0
  C  C234  1  0.12240000  0.11677000  0.95747000  1.0
  C  C235  1  0.68878000  0.09743000  0.71759000  1.0
  C  C236  1  0.57376000  0.14460000  0.82631000  1.0
  C  C237  1  0.81650000  0.13107000  0.81755000  1.0
  C  C238  1  0.49932000  0.13384000  0.33024000  1.0
  C  C239  1  0.64852000  0.05016000  0.57918000  1.0
  C  C240  1  0.74938000  0.01182000  0.50360000  1.0
  C  C241  1  0.48908000  0.00950000  0.48991000  1.0
  C  C242  1  0.60956000  0.10104000  0.51155000  1.0
  C  C243  1  0.43634000  0.12451000  0.30774000  1.0
  C  C244  1  0.42902000  0.09171000  0.28235000  1.0
  C  C245  1  0.36700000  0.08109000  0.26296000  1.0
  C  C246  1  0.30956000  0.10277000  0.26875000  1.0
  C  C247  1  0.31706000  0.13591000  0.29380000  1.0
  C  C248  1  0.38016000  0.14674000  0.31293000  1.0
  C  C249  1  0.38918000  0.10656000  0.85288000  1.0
  C  C250  1  0.39850000  0.14049000  0.86573000  1.0
  C  C251  1  0.51086000  0.13105000  0.83530000  1.0
  C  C252  1  0.50158000  0.09699000  0.82224000  1.0
  C  C253  1  0.44152000  0.08489000  0.83093000  1.0
  C  C254  1  0.80598000  0.98618000  0.49043000  1.0
  C  C255  1  0.87868000  0.99472000  0.49877000  1.0
  C  C256  1  0.92418000  0.12141000  0.30001000  1.0
  C  C257  1  0.78770000  0.13923000  0.33054000  1.0
  C  C258  1  0.81692000  0.10810000  0.32112000  1.0
  C  C259  1  0.88478000  0.09924000  0.30597000  1.0
  C  C260  1  0.01604000  0.11288000  0.85211000  1.0
  C  C261  1  0.97818000  0.14243000  0.87097000  1.0
  C  C262  1  0.91240000  0.14783000  0.86011000  1.0
  C  C263  1  0.88304000  0.12386000  0.83006000  1.0
  C  C264  1  0.92078000  0.09415000  0.81108000  1.0
  C  C265  1  0.98668000  0.08870000  0.82206000  1.0
  C  C266  1  0.42104000  0.99112000  0.47831000  1.0
  C  C267  1  0.38092000  0.98580000  0.50053000  1.0
  C  C268  1  0.39472000  0.97916000  0.44620000  1.0
  C  C269  1  0.01494000  0.14807000  0.14491000  1.0
  C  C270  1  0.06274000  0.13359000  0.15712000  1.0
  C  C271  1  0.93422000  0.98973000  0.85499000  1.0
  C  C272  1  0.98750000  0.01298000  0.87254000  1.0
  C  C273  1  0.05838000  0.00295000  0.87292000  1.0
  C  C274  1  0.99268000  0.13417000  0.02649000  1.0
  C  C275  1  0.03826000  0.11720000  0.99930000  1.0
  C  C276  1  0.07888000  0.13445000  0.98763000  1.0
  C  C277  1  0.98446000  0.00103000  0.15653000  1.0
  C  C278  1  0.90988000  0.00137000  0.15123000  1.0
  C  C279  1  0.67772000  0.08522000  0.68217000  1.0
  C  C280  1  0.66106000  0.10727000  0.67107000  1.0
  C  C281  1  0.65420000  0.09611000  0.63746000  1.0
  C  C282  1  0.66300000  0.06263000  0.61435000  1.0
  C  C283  1  0.68026000  0.04059000  0.62542000  1.0
  C  C284  1  0.68760000  0.05175000  0.65894000  1.0
  C  C285  1  0.67192000  0.13513000  0.49240000  1.0
  C  C286  1  0.60762000  0.12623000  0.50161000  1.0
  C  C287  1  0.54174000  0.13677000  0.49538000  1.0
  Dy  Dy288  1  0.80328000  0.85784000  0.10899000  1.0
  Dy  Dy289  1  0.83094000  0.86727000  0.75890000  1.0
  Dy  Dy290  1  0.04258000  0.72490000  0.86717000  1.0
  Dy  Dy291  1  0.56962000  0.56246000  0.80544000  1.0
  Dy  Dy292  1  0.66346000  0.45245000  0.53990000  1.0
  Dy  Dy293  1  0.18938000  0.54145000  0.47153000  1.0
  Dy  Dy294  1  0.13090000  0.88608000  0.42892000  1.0
  Dy  Dy295  1  0.32040000  0.49299000  0.05024000  1.0
  Dy  Dy296  1  0.31488000  0.80650000  0.59766000  1.0
  Dy  Dy297  1  0.27374000  0.77070000  0.18250000  1.0
  Dy  Dy298  1  0.79712000  0.40396000  0.89043000  1.0
  Dy  Dy299  1  0.31450000  0.38573000  0.20201000  1.0
  Dy  Dy300  1  0.83892000  0.22021000  0.11925000  1.0
  Dy  Dy301  1  0.60464000  0.17589000  0.38737000  1.0
  Dy  Dy302  1  0.71156000  0.14847000  0.79085000  1.0
  Dy  Dy303  1  0.07992000  0.08662000  0.22857000  1.0
  Dy  Dy304  1  0.18676000  0.09225000  0.89789000  1.0
  Dy  Dy305  1  0.60448000  0.04673000  0.51537000  1.0
  F  F306  1  0.63106000  0.86903000  0.18900000  1.0
  F  F307  1  0.51596000  0.85726000  0.21675000  1.0
  F  F308  1  0.53336000  0.83007000  0.73710000  1.0
  F  F309  1  0.43068000  0.81292000  0.69055000  1.0
  F  F310  1  0.29846000  0.66867000  0.78642000  1.0
  F  F311  1  0.41382000  0.63115000  0.78180000  1.0
  F  F312  1  0.02900000  0.50792000  0.02894000  1.0
  F  F313  1  0.92442000  0.47959000  0.98367000  1.0
  F  F314  1  0.90308000  0.56814000  0.49986000  1.0
  F  F315  1  0.78462000  0.55120000  0.52105000  1.0
  F  F316  1  0.10758000  0.86177000  0.20854000  1.0
  F  F317  1  0.97568000  0.87911000  0.19722000  1.0
  F  F318  1  0.14732000  0.88777000  0.67640000  1.0
  F  F319  1  0.02104000  0.90172000  0.70997000  1.0
  F  F320  1  0.86916000  0.66960000  0.89718000  1.0
  F  F321  1  0.73998000  0.63940000  0.88423000  1.0
  F  F322  1  0.30706000  0.94886000  0.40497000  1.0
  F  F323  1  0.49518000  0.54379000  0.56814000  1.0
  F  F324  1  0.36274000  0.56112000  0.55660000  1.0
  F  F325  1  0.95500000  0.85280000  0.01908000  1.0
  F  F326  1  0.04446000  0.82362000  0.96607000  1.0
  F  F327  1  0.14112000  0.95843000  0.85842000  1.0
  F  F328  1  0.03796000  0.91338000  0.82472000  1.0
  F  F329  1  0.84152000  0.77602000  0.84824000  1.0
  F  F330  1  0.78424000  0.81276000  0.82415000  1.0
  F  F331  1  0.79892000  0.97307000  0.13181000  1.0
  F  F332  1  0.80532000  0.56064000  0.87812000  1.0
  F  F333  1  0.88288000  0.52138000  0.89349000  1.0
  F  F334  1  0.72498000  0.53407000  0.71402000  1.0
  F  F335  1  0.75578000  0.50138000  0.64925000  1.0
  F  F336  1  0.23472000  0.51833000  0.36446000  1.0
  F  F337  1  0.30848000  0.48142000  0.30744000  1.0
  F  F338  1  0.13486000  0.80887000  0.46038000  1.0
  F  F339  1  0.20138000  0.79357000  0.50227000  1.0
  F  F340  1  0.31142000  0.66253000  0.05589000  1.0
  F  F341  1  0.29524000  0.59678000  0.02470000  1.0
  F  F342  1  0.31048000  0.81757000  0.35419000  1.0
  F  F343  1  0.35236000  0.78913000  0.29047000  1.0
  F  F344  1  0.17852000  0.45141000  0.16857000  1.0
  F  F345  1  0.17940000  0.47783000  0.12873000  1.0
  F  F346  1  0.11418000  0.65311000  0.52732000  1.0
  F  F347  1  0.15098000  0.71693000  0.56404000  1.0
  F  F348  1  0.54676000  0.32592000  0.11835000  1.0
  F  F349  1  0.14986000  0.31675000  0.11094000  1.0
  F  F350  1  0.62280000  0.38315000  0.95648000  1.0
  F  F351  1  0.49728000  0.40252000  0.99145000  1.0
  F  F352  1  0.64416000  0.34340000  0.51283000  1.0
  F  F353  1  0.64018000  0.31474000  0.82427000  1.0
  F  F354  1  0.66652000  0.28999000  0.10896000  1.0
  F  F355  1  0.02030000  0.28511000  0.09419000  1.0
  F  F356  1  0.59440000  0.28099000  0.47604000  1.0
  F  F357  1  0.61600000  0.25019000  0.80252000  1.0
  F  F358  1  0.01888000  0.21876000  0.04368000  1.0
  F  F359  1  0.38476000  0.17855000  0.33740000  1.0
  F  F360  1  0.11062000  0.18623000  0.99237000  1.0
  F  F361  1  0.26350000  0.15786000  0.29986000  1.0
  F  F362  1  0.47558000  0.16052000  0.46917000  1.0
  F  F363  1  0.55046000  0.07524000  0.80106000  1.0
  F  F364  1  0.43500000  0.05185000  0.81769000  1.0
  F  F365  1  0.00188000  0.98058000  0.49335000  1.0
  F  F366  1  0.89814000  0.02610000  0.52065000  1.0
  F  F367  1  0.77992000  0.08623000  0.32638000  1.0
  F  F368  1  0.91058000  0.06867000  0.29619000  1.0
  F  F369  1  0.89418000  0.07032000  0.78187000  1.0
  F  F370  1  0.02128000  0.05970000  0.80341000  1.0
  F  F371  1  0.43186000  0.98420000  0.42422000  1.0
  F  F372  1  0.98496000  0.12926000  0.11477000  1.0
  F  F373  1  0.07802000  0.10109000  0.13825000  1.0
  F  F374  1  0.87312000  0.03014000  0.16375000  1.0
  F  F375  1  0.69038000  0.00809000  0.60380000  1.0
  F  F376  1  0.70362000  0.02959000  0.66855000  1.0
  F  F377  1  0.47860000  0.12901000  0.50435000  1.0
  H  H378  1  0.44104000  0.78111000  0.11359000  1.0
  H  H379  1  0.54428000  0.79177000  0.08869000  1.0
  H  H380  1  0.60658000  0.80568000  0.61935000  1.0
  H  H381  1  0.69868000  0.82118000  0.66111000  1.0
  H  H382  1  0.32864000  0.62891000  0.87185000  1.0
  H  H383  1  0.22582000  0.66230000  0.87600000  1.0
  H  H384  1  0.73318000  0.94580000  0.46143000  1.0
  H  H385  1  0.82752000  0.90431000  0.43674000  1.0
  H  H386  1  0.09678000  0.41646000  0.90946000  1.0
  H  H387  1  0.19136000  0.44195000  0.95049000  1.0
  H  H388  1  0.89414000  0.45436000  0.49515000  1.0
  H  H389  1  0.00272000  0.46978000  0.47612000  1.0
  H  H390  1  0.95818000  0.77693000  0.10646000  1.0
  H  H391  1  0.07592000  0.76150000  0.11644000  1.0
  H  H392  1  0.00460000  0.79318000  0.67945000  1.0
  H  H393  1  0.11728000  0.78058000  0.64899000  1.0
  H  H394  1  0.76826000  0.61207000  0.77699000  1.0
  H  H395  1  0.88446000  0.64010000  0.78876000  1.0
  H  H396  1  0.28864000  0.96399000  0.50860000  1.0
  H  H397  1  0.51838000  0.49989000  0.99241000  1.0
  H  H398  1  0.62922000  0.48285000  0.96175000  1.0
  H  H399  1  0.34942000  0.45991000  0.46429000  1.0
  H  H400  1  0.46690000  0.44480000  0.47409000  1.0
  H  H401  1  0.07038000  0.73876000  0.98670000  1.0
  H  H402  1  0.98988000  0.76485000  0.03351000  1.0
  H  H403  1  0.01206000  0.84233000  0.81376000  1.0
  H  H404  1  0.06412000  0.80855000  0.83475000  1.0
  H  H405  1  0.01072000  0.91825000  0.11609000  1.0
  H  H406  1  0.75244000  0.43416000  0.81693000  1.0
  H  H407  1  0.68380000  0.46963000  0.80263000  1.0
  H  H408  1  0.53114000  0.45622000  0.63042000  1.0
  H  H409  1  0.50390000  0.48545000  0.68939000  1.0
  H  H410  1  0.11846000  0.89047000  0.58724000  1.0
  H  H411  1  0.05876000  0.90424000  0.54986000  1.0
  H  H412  1  0.29346000  0.60335000  0.12516000  1.0
  H  H413  1  0.30608000  0.66287000  0.15339000  1.0
  H  H414  1  0.11548000  0.77267000  0.26136000  1.0
  H  H415  1  0.07768000  0.79890000  0.31858000  1.0
  H  H416  1  0.42372000  0.48516000  0.13883000  1.0
  H  H417  1  0.42296000  0.46129000  0.17446000  1.0
  H  H418  1  0.37510000  0.69021000  0.51872000  1.0
  H  H419  1  0.34244000  0.63190000  0.48588000  1.0
  H  H420  1  0.07786000  0.96973000  0.14575000  1.0
  H  H421  1  0.18076000  0.42309000  0.36382000  1.0
  H  H422  1  0.49552000  0.31501000  0.20759000  1.0
  H  H423  1  0.13238000  0.31938000  0.20919000  1.0
  H  H424  1  0.67664000  0.34551000  0.41747000  1.0
  H  H425  1  0.24728000  0.39059000  0.31386000  1.0
  H  H426  1  0.60384000  0.28250000  0.19901000  1.0
  H  H427  1  0.01782000  0.29123000  0.19425000  1.0
  H  H428  1  0.63150000  0.29015000  0.38475000  1.0
  H  H429  1  0.88088000  0.29344000  0.81883000  1.0
  H  H430  1  0.85888000  0.23522000  0.79872000  1.0
  H  H431  1  0.09628000  0.20109000  0.23217000  1.0
  H  H432  1  0.01298000  0.22576000  0.21112000  1.0
  H  H433  1  0.46350000  0.17890000  0.86759000  1.0
  H  H434  1  0.80774000  0.18573000  0.33252000  1.0
  H  H435  1  0.88498000  0.17100000  0.87510000  1.0
  H  H436  1  0.35956000  0.15788000  0.88264000  1.0
  H  H437  1  0.92398000  0.17019000  0.30582000  1.0
  H  H438  1  0.99906000  0.16138000  0.89439000  1.0
  H  H439  1  0.72064000  0.15626000  0.46597000  1.0
  H  H440  1  0.47118000  0.07397000  0.27767000  1.0
  H  H441  1  0.36338000  0.05551000  0.24392000  1.0
  H  H442  1  0.39910000  0.99501000  0.52556000  1.0
  H  H443  1  0.88094000  0.99841000  0.85384000  1.0
  H  H444  1  0.97402000  0.03884000  0.88397000  1.0
  H  H445  1  0.96172000  0.12042000  0.03512000  1.0
  H  H446  1  0.04160000  0.09064000  0.98733000  1.0
  H  H447  1  0.65390000  0.13325000  0.68835000  1.0
  H  H448  1  0.64038000  0.11356000  0.62963000  1.0
  H  H449  1  0.72340000  0.12750000  0.49713000  1.0
  O  O450  1  0.70594000  0.85544000  0.13599000  1.0
  O  O451  1  0.66496000  0.81535000  0.08691000  1.0
  O  O452  1  0.85770000  0.81716000  0.11285000  1.0
  O  O453  1  0.87646000  0.86695000  0.15073000  1.0
  O  O454  1  0.89472000  0.88157000  0.09741000  1.0
  O  O455  1  0.80056000  0.91098000  0.12330000  1.0
  O  O456  1  0.89674000  0.84864000  0.07432000  1.0
  O  O457  1  0.86044000  0.79531000  0.04828000  1.0
  O  O458  1  0.74848000  0.84354000  0.71877000  1.0
  O  O459  1  0.66552000  0.84826000  0.75615000  1.0
  O  O460  1  0.90426000  0.87996000  0.72844000  1.0
  O  O461  1  0.91496000  0.83280000  0.72496000  1.0
  O  O462  1  0.90754000  0.86828000  0.79626000  1.0
  O  O463  1  0.81196000  0.83725000  0.78317000  1.0
  O  O464  1  0.90856000  0.90007000  0.79927000  1.0
  O  O465  1  0.83772000  0.94295000  0.80790000  1.0
  O  O466  1  0.14154000  0.69431000  0.86023000  1.0
  O  O467  1  0.17924000  0.69878000  0.81669000  1.0
  O  O468  1  0.97382000  0.69369000  0.87883000  1.0
  O  O469  1  0.98078000  0.68320000  0.82766000  1.0
  O  O470  1  0.95550000  0.75734000  0.86807000  1.0
  O  O471  1  0.05900000  0.75696000  0.84514000  1.0
  O  O472  1  0.07556000  0.76418000  0.91742000  1.0
  O  O473  1  0.10176000  0.72456000  0.92941000  1.0
  O  O474  1  0.48678000  0.59680000  0.80412000  1.0
  O  O475  1  0.44084000  0.59640000  0.84831000  1.0
  O  O476  1  0.63642000  0.60561000  0.84148000  1.0
  O  O477  1  0.65994000  0.58377000  0.78985000  1.0
  O  O478  1  0.62570000  0.55571000  0.76023000  1.0
  O  O479  1  0.53944000  0.52238000  0.75428000  1.0
  O  O480  1  0.64964000  0.52801000  0.80819000  1.0
  O  O481  1  0.66764000  0.56475000  0.86218000  1.0
  O  O482  1  0.88406000  0.43225000  0.92671000  1.0
  O  O483  1  0.71468000  0.44017000  0.92040000  1.0
  O  O484  1  0.82600000  0.42346000  0.85707000  1.0
  O  O485  1  0.85042000  0.47168000  0.90282000  1.0
  O  O486  1  0.75082000  0.46195000  0.51225000  1.0
  O  O487  1  0.74374000  0.51619000  0.54984000  1.0
  O  O488  1  0.57698000  0.44883000  0.50637000  1.0
  O  O489  1  0.59850000  0.49673000  0.55049000  1.0
  O  O490  1  0.59850000  0.45058000  0.57859000  1.0
  O  O491  1  0.71116000  0.46749000  0.58855000  1.0
  O  O492  1  0.09216000  0.51606000  0.47755000  1.0
  O  O493  1  0.02500000  0.55112000  0.46898000  1.0
  O  O494  1  0.26486000  0.50309000  0.46600000  1.0
  O  O495  1  0.24692000  0.54577000  0.51533000  1.0
  O  O496  1  0.26486000  0.57978000  0.47477000  1.0
  O  O497  1  0.15152000  0.59222000  0.48939000  1.0
  O  O498  1  0.17374000  0.52146000  0.41751000  1.0
  O  O499  1  0.15192000  0.47360000  0.41593000  1.0
  O  O500  1  0.04062000  0.92224000  0.45025000  1.0
  O  O501  1  0.95684000  0.88185000  0.42731000  1.0
  O  O502  1  0.20560000  0.92062000  0.46670000  1.0
  O  O503  1  0.19672000  0.92021000  0.41955000  1.0
  O  O504  1  0.20690000  0.84663000  0.39737000  1.0
  O  O505  1  0.09902000  0.84829000  0.37854000  1.0
  O  O506  1  0.09352000  0.85750000  0.45243000  1.0
  O  O507  1  0.06822000  0.90613000  0.49746000  1.0
  O  O508  1  0.24434000  0.47924000  0.00832000  1.0
  O  O509  1  0.15810000  0.50352000  0.04696000  1.0
  O  O510  1  0.41298000  0.49712000  0.02360000  1.0
  O  O511  1  0.39184000  0.44957000  0.02095000  1.0
  O  O512  1  0.36972000  0.49933000  0.09605000  1.0
  O  O513  1  0.25812000  0.48092000  0.08277000  1.0
  O  O514  1  0.28458000  0.54525000  0.07576000  1.0
  O  O515  1  0.30908000  0.54354000  0.02786000  1.0
  O  O516  1  0.39294000  0.80262000  0.63200000  1.0
  O  O517  1  0.48018000  0.80280000  0.59871000  1.0
  O  O518  1  0.24948000  0.84348000  0.64086000  1.0
  O  O519  1  0.22128000  0.79219000  0.61833000  1.0
  O  O520  1  0.25392000  0.76161000  0.58892000  1.0
  O  O521  1  0.34308000  0.75545000  0.55686000  1.0
  O  O522  1  0.23904000  0.81146000  0.56334000  1.0
  O  O523  1  0.22824000  0.86588000  0.59991000  1.0
  O  O524  1  0.36110000  0.78603000  0.15987000  1.0
  O  O525  1  0.40262000  0.82206000  0.21072000  1.0
  O  O526  1  0.19164000  0.76732000  0.14714000  1.0
  O  O527  1  0.20440000  0.81379000  0.19418000  1.0
  O  O528  1  0.20294000  0.76110000  0.21454000  1.0
  O  O529  1  0.31064000  0.78247000  0.23216000  1.0
  O  O530  1  0.31380000  0.71921000  0.15844000  1.0
  O  O531  1  0.29606000  0.71793000  0.11029000  1.0
  O  O532  1  0.25284000  0.42361000  0.19715000  1.0
  O  O533  1  0.33062000  0.42126000  0.25566000  1.0
  O  O534  1  0.96830000  0.40493000  0.88751000  1.0
  O  O535  1  0.73426000  0.39769000  0.92745000  1.0
  O  O536  1  0.73002000  0.36464000  0.85197000  1.0
  O  O537  1  0.84268000  0.35436000  0.85886000  1.0
  O  O538  1  0.68782000  0.39871000  0.51598000  1.0
  O  O539  1  0.68428000  0.40031000  0.46885000  1.0
  O  O540  1  0.40438000  0.35124000  0.19689000  1.0
  O  O541  1  0.43046000  0.35179000  0.15026000  1.0
  O  O542  1  0.22882000  0.35606000  0.20682000  1.0
  O  O543  1  0.25566000  0.34752000  0.15751000  1.0
  O  O544  1  0.36916000  0.41702000  0.18605000  1.0
  O  O545  1  0.31398000  0.37811000  0.26335000  1.0
  O  O546  1  0.75100000  0.25623000  0.12658000  1.0
  O  O547  1  0.71454000  0.24994000  0.16901000  1.0
  O  O548  1  0.91264000  0.25977000  0.15653000  1.0
  O  O549  1  0.91718000  0.25156000  0.10846000  1.0
  O  O550  1  0.60382000  0.23316000  0.37307000  1.0
  O  O551  1  0.89374000  0.21114000  0.07249000  1.0
  O  O552  1  0.89254000  0.21736000  0.17931000  1.0
  O  O553  1  0.67038000  0.19773000  0.80389000  1.0
  O  O554  1  0.57512000  0.22902000  0.41748000  1.0
  O  O555  1  0.92350000  0.18057000  0.09310000  1.0
  O  O556  1  0.92272000  0.18859000  0.12530000  1.0
  O  O557  1  0.58040000  0.17657000  0.83924000  1.0
  O  O558  1  0.78022000  0.18308000  0.78379000  1.0
  O  O559  1  0.69584000  0.18090000  0.36016000  1.0
  O  O560  1  0.65996000  0.17885000  0.43066000  1.0
  O  O561  1  0.13520000  0.15366000  0.23834000  1.0
  O  O562  1  0.77908000  0.15866000  0.83408000  1.0
  O  O563  1  0.52256000  0.16441000  0.34755000  1.0
  O  O564  1  0.54712000  0.16198000  0.41978000  1.0
  O  O565  1  0.18114000  0.10591000  0.25901000  1.0
  O  O566  1  0.24422000  0.06245000  0.22047000  1.0
  O  O567  1  0.01356000  0.12771000  0.26528000  1.0
  O  O568  1  0.01998000  0.08186000  0.26709000  1.0
  O  O569  1  0.98906000  0.06027000  0.19536000  1.0
  O  O570  1  0.08874000  0.03329000  0.19038000  1.0
  O  O571  1  0.11210000  0.10423000  0.19423000  1.0
  O  O572  1  0.27626000  0.11410000  0.88278000  1.0
  O  O573  1  0.31936000  0.06246000  0.85232000  1.0
  O  O574  1  0.11760000  0.07925000  0.85303000  1.0
  O  O575  1  0.10682000  0.12670000  0.89472000  1.0
  O  O576  1  0.10060000  0.09001000  0.93066000  1.0
  O  O577  1  0.18072000  0.12884000  0.95181000  1.0
  O  O578  1  0.10400000  0.05929000  0.90201000  1.0
  O  O579  1  0.18144000  0.01807000  0.87101000  1.0
  O  O580  1  0.62266000  0.12538000  0.80501000  1.0
  O  O581  1  0.79366000  0.11254000  0.78704000  1.0
  O  O582  1  0.66994000  0.12746000  0.73962000  1.0
  O  O583  1  0.72448000  0.07961000  0.72721000  1.0
  O  O584  1  0.52962000  0.11131000  0.33505000  1.0
  O  O585  1  0.67490000  0.13267000  0.35555000  1.0
  O  O586  1  0.68072000  0.00432000  0.49822000  1.0
  O  O587  1  0.76738000  0.04306000  0.51935000  1.0
  O  O588  1  0.51316000  0.01969000  0.51992000  1.0
  O  O589  1  0.53008000  0.01892000  0.47294000  1.0
  O  O590  1  0.55358000  0.09305000  0.52366000  1.0
  O  O591  1  0.66312000  0.07977000  0.50277000  1.0
  O  O592  1  0.64770000  0.06965000  0.56656000  1.0
  O  O593  1  0.62870000  0.01940000  0.56046000  1.0
