# generated using pymatgen
data_CoH24C38(SN)6
_symmetry_space_group_name_H-M   'P 1'
_cell_length_a   25.61540000
_cell_length_b   48.03135003
_cell_length_c   48.03040000
_cell_angle_alpha   119.99803717
_cell_angle_beta   90.00000000
_cell_angle_gamma   90.00000000
_symmetry_Int_Tables_number   1
_chemical_formula_structural   CoH24C38(SN)6
_chemical_formula_sum   'Co6 H144 C228 S36 N36'
_cell_volume   51177.77024947
_cell_formula_units_Z   6
loop_
 _symmetry_equiv_pos_site_id
 _symmetry_equiv_pos_as_xyz
  1  'x, y, z'
loop_
 _atom_site_type_symbol
 _atom_site_label
 _atom_site_symmetry_multiplicity
 _atom_site_fract_x
 _atom_site_fract_y
 _atom_site_fract_z
 _atom_site_occupancy
  Co  Co0  1  0.89050000  0.82961000  0.39530000  1.0
  Co  Co1  1  0.71547000  0.37014000  0.53058000  1.0
  Co  Co2  1  0.55152000  0.50192000  0.12536000  1.0
  Co  Co3  1  0.39003000  0.09980000  0.57886000  1.0
  Co  Co4  1  0.21288000  0.54790000  0.43904000  1.0
  Co  Co5  1  0.05130000  0.42145000  0.85645000  1.0
  H  H6  1  0.79333000  0.80872000  0.35702000  1.0
  H  H7  1  0.70703000  0.83055000  0.35948000  1.0
  H  H8  1  0.83517000  0.89101000  0.44599000  1.0
  H  H9  1  0.68160000  0.88210000  0.40551000  1.0
  H  H10  1  0.93790000  0.77457000  0.40193000  1.0
  H  H11  1  0.99599000  0.83726000  0.37045000  1.0
  H  H12  1  0.08247000  0.81496000  0.36436000  1.0
  H  H13  1  0.09845000  0.77058000  0.37432000  1.0
  H  H14  1  0.87197000  0.87314000  0.36835000  1.0
  H  H15  1  0.91467000  0.92111000  0.37319000  1.0
  H  H16  1  0.99015000  0.94503000  0.40916000  1.0
  H  H17  1  0.97627000  0.87319000  0.43694000  1.0
  H  H18  1  0.81884000  0.81653000  0.43647000  1.0
  H  H19  1  0.76446000  0.77255000  0.43000000  1.0
  H  H20  1  0.75916000  0.72305000  0.37774000  1.0
  H  H21  1  0.87927000  0.75906000  0.34185000  1.0
  H  H22  1  0.61903000  0.32917000  0.50890000  1.0
  H  H23  1  0.53283000  0.33193000  0.49082000  1.0
  H  H24  1  0.65533000  0.42236000  0.52366000  1.0
  H  H25  1  0.50430000  0.37974000  0.48940000  1.0
  H  H26  1  0.77123000  0.39048000  0.59440000  1.0
  H  H27  1  0.80930000  0.33096000  0.49573000  1.0
  H  H28  1  0.89376000  0.31869000  0.50989000  1.0
  H  H29  1  0.91812000  0.34081000  0.56631000  1.0
  H  H30  1  0.68140000  0.35634000  0.46363000  1.0
  H  H31  1  0.71860000  0.36509000  0.42200000  1.0
  H  H32  1  0.80727000  0.38706000  0.42788000  1.0
  H  H33  1  0.81771000  0.39555000  0.52061000  1.0
  H  H34  1  0.68643000  0.41885000  0.60118000  1.0
  H  H35  1  0.63583000  0.41856000  0.64249000  1.0
  H  H36  1  0.59384000  0.36931000  0.63413000  1.0
  H  H37  1  0.66711000  0.31702000  0.54207000  1.0
  H  H38  1  0.45979000  0.47649000  0.14517000  1.0
  H  H39  1  0.37425000  0.45601000  0.12517000  1.0
  H  H40  1  0.48735000  0.49279000  0.06679000  1.0
  H  H41  1  0.34128000  0.45449000  0.07681000  1.0
  H  H42  1  0.60393000  0.56730000  0.16953000  1.0
  H  H43  1  0.65018000  0.46949000  0.12685000  1.0
  H  H44  1  0.73573000  0.48531000  0.15121000  1.0
  H  H45  1  0.75701000  0.54203000  0.18609000  1.0
  H  H46  1  0.52281000  0.43267000  0.07514000  1.0
  H  H47  1  0.56301000  0.39015000  0.02620000  1.0
  H  H48  1  0.64681000  0.39941000  0.00706000  1.0
  H  H49  1  0.64852000  0.49528000  0.08718000  1.0
  H  H50  1  0.51932000  0.57221000  0.14735000  1.0
  H  H51  1  0.46711000  0.61257000  0.18852000  1.0
  H  H52  1  0.42569000  0.60345000  0.22909000  1.0
  H  H53  1  0.50314000  0.51273000  0.18990000  1.0
  H  H54  1  0.29783000  0.12320000  0.62170000  1.0
  H  H55  1  0.21164000  0.10355000  0.62366000  1.0
  H  H56  1  0.32808000  0.03955000  0.53132000  1.0
  H  H57  1  0.18015000  0.05276000  0.57915000  1.0
  H  H58  1  0.43749000  0.14566000  0.55885000  1.0
  H  H59  1  0.49173000  0.10076000  0.61057000  1.0
  H  H60  1  0.57819000  0.12312000  0.61489000  1.0
  H  H61  1  0.59722000  0.15578000  0.58978000  1.0
  H  H62  1  0.36430000  0.04992000  0.59836000  1.0
  H  H63  1  0.40595000  0.00115000  0.59159000  1.0
  H  H64  1  0.48895000  0.98238000  0.56225000  1.0
  H  H65  1  0.48504000  0.06124000  0.54434000  1.0
  H  H66  1  0.31711000  0.11137000  0.53695000  1.0
  H  H67  1  0.26389000  0.15510000  0.54202000  1.0
  H  H68  1  0.26023000  0.20580000  0.59306000  1.0
  H  H69  1  0.38038000  0.17112000  0.63054000  1.0
  H  H70  1  0.11527000  0.58507000  0.45121000  1.0
  H  H71  1  0.02489000  0.58013000  0.46322000  1.0
  H  H72  1  0.15510000  0.49893000  0.45092000  1.0
  H  H73  1  0.99686000  0.53461000  0.46877000  1.0
  H  H74  1  0.26895000  0.53220000  0.37655000  1.0
  H  H75  1  0.31033000  0.58195000  0.47566000  1.0
  H  H76  1  0.39846000  0.58969000  0.46261000  1.0
  H  H77  1  0.42510000  0.56709000  0.40624000  1.0
  H  H78  1  0.17952000  0.56623000  0.50705000  1.0
  H  H79  1  0.21702000  0.55989000  0.55046000  1.0
  H  H80  1  0.30108000  0.53214000  0.54285000  1.0
  H  H81  1  0.30684000  0.51529000  0.44648000  1.0
  H  H82  1  0.14729000  0.50499000  0.38172000  1.0
  H  H83  1  0.09780000  0.51053000  0.34182000  1.0
  H  H84  1  0.09419000  0.56243000  0.34375000  1.0
  H  H85  1  0.20691000  0.60003000  0.42033000  1.0
  H  H86  1  0.95418000  0.43923000  0.83578000  1.0
  H  H87  1  0.86701000  0.45694000  0.85694000  1.0
  H  H88  1  0.99453000  0.42901000  0.91625000  1.0
  H  H89  1  0.84035000  0.45958000  0.90708000  1.0
  H  H90  1  0.10100000  0.36095000  0.80139000  1.0
  H  H91  1  0.15569000  0.45549000  0.86575000  1.0
  H  H92  1  0.24306000  0.44055000  0.84445000  1.0
  H  H93  1  0.26136000  0.38654000  0.80008000  1.0
  H  H94  1  0.03034000  0.49134000  0.90153000  1.0
  H  H95  1  0.07162000  0.53408000  0.95040000  1.0
  H  H96  1  0.14750000  0.52197000  0.97398000  1.0
  H  H97  1  0.13671000  0.42296000  0.90002000  1.0
  H  H98  1  0.98075000  0.36621000  0.84112000  1.0
  H  H99  1  0.92761000  0.32909000  0.79618000  1.0
  H  H100  1  0.92345000  0.33323000  0.74740000  1.0
  H  H101  1  0.04197000  0.40606000  0.78617000  1.0
  H  H102  1  0.02045000  0.91009000  0.48355000  1.0
  H  H103  1  0.10550000  0.93793000  0.51177000  1.0
  H  H104  1  0.25774000  0.01888000  0.48352000  1.0
  H  H105  1  0.19191000  0.97552000  0.44637000  1.0
  H  H106  1  0.12584000  0.47322000  0.48159000  1.0
  H  H107  1  0.07085000  0.43312000  0.49005000  1.0
  H  H108  1  0.90845000  0.38766000  0.50957000  1.0
  H  H109  1  0.99577000  0.41295000  0.50774000  1.0
  H  H110  1  0.69808000  0.50788000  0.05504000  1.0
  H  H111  1  0.78357000  0.50696000  0.02731000  1.0
  H  H112  1  0.91706000  0.39417000  0.93132000  1.0
  H  H113  1  0.85266000  0.39820000  0.97448000  1.0
  H  H114  1  0.53759000  0.02964000  0.50049000  1.0
  H  H115  1  0.62455000  0.00286000  0.47486000  1.0
  H  H116  1  0.75851000  0.90951000  0.49618000  1.0
  H  H117  1  0.69435000  0.95359000  0.53405000  1.0
  H  H118  1  0.57042000  0.46997000  0.55777000  1.0
  H  H119  1  0.50452000  0.50692000  0.55133000  1.0
  H  H120  1  0.36147000  0.47327000  0.43558000  1.0
  H  H121  1  0.44901000  0.44991000  0.43943000  1.0
  H  H122  1  0.18207000  0.41223000  0.93560000  1.0
  H  H123  1  0.26721000  0.41191000  0.96332000  1.0
  H  H124  1  0.41434000  0.52214000  0.04932000  1.0
  H  H125  1  0.34806000  0.51746000  0.00676000  1.0
  H  H126  1  0.88486000  0.70104000  0.30014000  1.0
  H  H127  1  0.84304000  0.65641000  0.24788000  1.0
  H  H128  1  0.61393000  0.61230000  0.22189000  1.0
  H  H129  1  0.65531000  0.66465000  0.26570000  1.0
  H  H130  1  0.52305000  0.33410000  0.60600000  1.0
  H  H131  1  0.48700000  0.27881000  0.59139000  1.0
  H  H132  1  0.59810000  0.14917000  0.52911000  1.0
  H  H133  1  0.61908000  0.19999000  0.52620000  1.0
  H  H134  1  0.43730000  0.51031000  0.35295000  1.0
  H  H135  1  0.46042000  0.50535000  0.29858000  1.0
  H  H136  1  0.35481000  0.57147000  0.23263000  1.0
  H  H137  1  0.31996000  0.55891000  0.27507000  1.0
  H  H138  1  0.11470000  0.32204000  0.74729000  1.0
  H  H139  1  0.15590000  0.27164000  0.70055000  1.0
  H  H140  1  0.38381000  0.22749000  0.67315000  1.0
  H  H141  1  0.34165000  0.27337000  0.72437000  1.0
  H  H142  1  0.21430000  0.64260000  0.40659000  1.0
  H  H143  1  0.17340000  0.69436000  0.41260000  1.0
  H  H144  1  0.94928000  0.71931000  0.38474000  1.0
  H  H145  1  0.98828000  0.67152000  0.38754000  1.0
  H  H146  1  0.05020000  0.38810000  0.72656000  1.0
  H  H147  1  0.00977000  0.39571000  0.68151000  1.0
  H  H148  1  0.77987000  0.38331000  0.63961000  1.0
  H  H149  1  0.82180000  0.39182000  0.69179000  1.0
  C  C150  1  0.01855000  0.76876000  0.38838000  1.0
  C  C151  1  0.96903000  0.78336000  0.39331000  1.0
  C  C152  1  0.05109000  0.80615000  0.37297000  1.0
  C  C153  1  0.05979000  0.78101000  0.37865000  1.0
  C  C154  1  0.00144000  0.81934000  0.37741000  1.0
  C  C155  1  0.91940000  0.80005000  0.32818000  1.0
  C  C156  1  0.92429000  0.83633000  0.45536000  1.0
  C  C157  1  0.90463000  0.88342000  0.38459000  1.0
  C  C158  1  0.92863000  0.91071000  0.38725000  1.0
  C  C159  1  0.97122000  0.92419000  0.40771000  1.0
  C  C160  1  0.78457000  0.83212000  0.37717000  1.0
  C  C161  1  0.96192000  0.88421000  0.42365000  1.0
  C  C162  1  0.98853000  0.91098000  0.42626000  1.0
  C  C163  1  0.73492000  0.84419000  0.37842000  1.0
  C  C164  1  0.80714000  0.87779000  0.42705000  1.0
  C  C165  1  0.75661000  0.89054000  0.42944000  1.0
  C  C166  1  0.72101000  0.87348000  0.40445000  1.0
  C  C167  1  0.82241000  0.79405000  0.41428000  1.0
  C  C168  1  0.78970000  0.76933000  0.41054000  1.0
  C  C169  1  0.78687000  0.74146000  0.38096000  1.0
  C  C170  1  0.81813000  0.73799000  0.35556000  1.0
  C  C171  1  0.85429000  0.76231000  0.36123000  1.0
  C  C172  1  0.84568000  0.36721000  0.58483000  1.0
  C  C173  1  0.79769000  0.37474000  0.57580000  1.0
  C  C174  1  0.86724000  0.33463000  0.52869000  1.0
  C  C175  1  0.88087000  0.34744000  0.56067000  1.0
  C  C176  1  0.81876000  0.34180000  0.52087000  1.0
  C  C177  1  0.71502000  0.30759000  0.47354000  1.0
  C  C178  1  0.76198000  0.43220000  0.57039000  1.0
  C  C179  1  0.71991000  0.36668000  0.46760000  1.0
  C  C180  1  0.74093000  0.37147000  0.44350000  1.0
  C  C181  1  0.79092000  0.38407000  0.44701000  1.0
  C  C182  1  0.60943000  0.35063000  0.50838000  1.0
  C  C183  1  0.79610000  0.38789000  0.49881000  1.0
  C  C184  1  0.81962000  0.39202000  0.47473000  1.0
  C  C185  1  0.55947000  0.35186000  0.49792000  1.0
  C  C186  1  0.62868000  0.40261000  0.51703000  1.0
  C  C187  1  0.57797000  0.40479000  0.50680000  1.0
  C  C188  1  0.54378000  0.37886000  0.49699000  1.0
  C  C189  1  0.67153000  0.39587000  0.59575000  1.0
  C  C190  1  0.64193000  0.39626000  0.62017000  1.0
  C  C191  1  0.61842000  0.36837000  0.61533000  1.0
  C  C192  1  0.62616000  0.33977000  0.58644000  1.0
  C  C193  1  0.66062000  0.33972000  0.56352000  1.0
  C  C194  1  0.68125000  0.55915000  0.18074000  1.0
  C  C195  1  0.63236000  0.54922000  0.16538000  1.0
  C  C196  1  0.70718000  0.50357000  0.15524000  1.0
  C  C197  1  0.71899000  0.53575000  0.17478000  1.0
  C  C198  1  0.65800000  0.49481000  0.14138000  1.0
  C  C199  1  0.56142000  0.44641000  0.13341000  1.0
  C  C200  1  0.59015000  0.54418000  0.10376000  1.0
  C  C201  1  0.55966000  0.43766000  0.06767000  1.0
  C  C202  1  0.58234000  0.41318000  0.03964000  1.0
  C  C203  1  0.62978000  0.41850000  0.02893000  1.0
  C  C204  1  0.44837000  0.47597000  0.12345000  1.0
  C  C205  1  0.62941000  0.47242000  0.07397000  1.0
  C  C206  1  0.65374000  0.44860000  0.04589000  1.0
  C  C207  1  0.39878000  0.46408000  0.11223000  1.0
  C  C208  1  0.46268000  0.48544000  0.08018000  1.0
  C  C209  1  0.41205000  0.47405000  0.06837000  1.0
  C  C210  1  0.38061000  0.46306000  0.08469000  1.0
  C  C211  1  0.50493000  0.56646000  0.16474000  1.0
  C  C212  1  0.47432000  0.59038000  0.18857000  1.0
  C  C213  1  0.45118000  0.58514000  0.21144000  1.0
  C  C214  1  0.46035000  0.55642000  0.21121000  1.0
  C  C215  1  0.49574000  0.53404000  0.18855000  1.0
  C  C216  1  0.51848000  0.15272000  0.57218000  1.0
  C  C217  1  0.46831000  0.14018000  0.57074000  1.0
  C  C218  1  0.54782000  0.12782000  0.60212000  1.0
  C  C219  1  0.55834000  0.14609000  0.58784000  1.0
  C  C220  1  0.49799000  0.11535000  0.59969000  1.0
  C  C221  1  0.40671000  0.10741000  0.64192000  1.0
  C  C222  1  0.42505000  0.08147000  0.51481000  1.0
  C  C223  1  0.40039000  0.04221000  0.58501000  1.0
  C  C224  1  0.42396000  0.01440000  0.58137000  1.0
  C  C225  1  0.47092000  0.00390000  0.56477000  1.0
  C  C226  1  0.28675000  0.09990000  0.60223000  1.0
  C  C227  1  0.46760000  0.04821000  0.55476000  1.0
  C  C228  1  0.49333000  0.02068000  0.55094000  1.0
  C  C229  1  0.23702000  0.08914000  0.60345000  1.0
  C  C230  1  0.30264000  0.05366000  0.55151000  1.0
  C  C231  1  0.25182000  0.04233000  0.55151000  1.0
  C  C232  1  0.21965000  0.06026000  0.57820000  1.0
  C  C233  1  0.32152000  0.13422000  0.55860000  1.0
  C  C234  1  0.28945000  0.15887000  0.56156000  1.0
  C  C235  1  0.28757000  0.18747000  0.59051000  1.0
  C  C236  1  0.31898000  0.19172000  0.61616000  1.0
  C  C237  1  0.35497000  0.16738000  0.61107000  1.0
  C  C238  1  0.34865000  0.54771000  0.38730000  1.0
  C  C239  1  0.29718000  0.54457000  0.39559000  1.0
  C  C240  1  0.37049000  0.57672000  0.44352000  1.0
  C  C241  1  0.38532000  0.56385000  0.41173000  1.0
  C  C242  1  0.31961000  0.57241000  0.45071000  1.0
  C  C243  1  0.22310000  0.61108000  0.49540000  1.0
  C  C244  1  0.25534000  0.48587000  0.39320000  1.0
  C  C245  1  0.21618000  0.55363000  0.50283000  1.0
  C  C246  1  0.23732000  0.55018000  0.52772000  1.0
  C  C247  1  0.28488000  0.53447000  0.52330000  1.0
  C  C248  1  0.10495000  0.56493000  0.45415000  1.0
  C  C249  1  0.28696000  0.52492000  0.46914000  1.0
  C  C250  1  0.31033000  0.52135000  0.49362000  1.0
  C  C251  1  0.05304000  0.56217000  0.46061000  1.0
  C  C252  1  0.12646000  0.51665000  0.45365000  1.0
  C  C253  1  0.07392000  0.51287000  0.46006000  1.0
  C  C254  1  0.03746000  0.53613000  0.46345000  1.0
  C  C255  1  0.15151000  0.52711000  0.38135000  1.0
  C  C256  1  0.12170000  0.53030000  0.35892000  1.0
  C  C257  1  0.11984000  0.55971000  0.36016000  1.0
  C  C258  1  0.14938000  0.58553000  0.38306000  1.0
  C  C259  1  0.18302000  0.58037000  0.40325000  1.0
  C  C260  1  0.18181000  0.36964000  0.79693000  1.0
  C  C261  1  0.13164000  0.37867000  0.81073000  1.0
  C  C262  1  0.21225000  0.42276000  0.83503000  1.0
  C  C263  1  0.22226000  0.39213000  0.80988000  1.0
  C  C264  1  0.16210000  0.43079000  0.84758000  1.0
  C  C265  1  0.07969000  0.46069000  0.82861000  1.0
  C  C266  1  0.08650000  0.36764000  0.86209000  1.0
  C  C267  1  0.06313000  0.48533000  0.91167000  1.0
  C  C268  1  0.08635000  0.50974000  0.93948000  1.0
  C  C269  1  0.12917000  0.50273000  0.95276000  1.0
  C  C270  1  0.94491000  0.44137000  0.85866000  1.0
  C  C271  1  0.12163000  0.44712000  0.91156000  1.0
  C  C272  1  0.14752000  0.47111000  0.93884000  1.0
  C  C273  1  0.89475000  0.45119000  0.87033000  1.0
  C  C274  1  0.96664000  0.43511000  0.90324000  1.0
  C  C275  1  0.91555000  0.44427000  0.91546000  1.0
  C  C276  1  0.88012000  0.45281000  0.89880000  1.0
  C  C277  1  0.98475000  0.36663000  0.81901000  1.0
  C  C278  1  0.95276000  0.34585000  0.79373000  1.0
  C  C279  1  0.95055000  0.34834000  0.76628000  1.0
  C  C280  1  0.98176000  0.37085000  0.76377000  1.0
  C  C281  1  0.01710000  0.38943000  0.78868000  1.0
  C  C282  1  0.03503000  0.92411000  0.44726000  1.0
  C  C283  1  0.04584000  0.92171000  0.47443000  1.0
  C  C284  1  0.09231000  0.93687000  0.48986000  1.0
  C  C285  1  0.11893000  0.95087000  0.47472000  1.0
  C  C286  1  0.23004000  0.01338000  0.52355000  1.0
  C  C287  1  0.23291000  0.00612000  0.49164000  1.0
  C  C288  1  0.19662000  0.98276000  0.47148000  1.0
  C  C289  1  0.16552000  0.97134000  0.48741000  1.0
  C  C290  1  0.05611000  0.48552000  0.46370000  1.0
  C  C291  1  0.08487000  0.46894000  0.47542000  1.0
  C  C292  1  0.05478000  0.44724000  0.48025000  1.0
  C  C293  1  0.00241000  0.44640000  0.47199000  1.0
  C  C294  1  0.87396000  0.40409000  0.47852000  1.0
  C  C295  1  0.91353000  0.40017000  0.49627000  1.0
  C  C296  1  0.96141000  0.41365000  0.49501000  1.0
  C  C297  1  0.95980000  0.42843000  0.47645000  1.0
  C  C298  1  0.70314000  0.45564000  0.03433000  1.0
  C  C299  1  0.71973000  0.48594000  0.04070000  1.0
  C  C300  1  0.76649000  0.48549000  0.02547000  1.0
  C  C301  1  0.78776000  0.45495000  0.00723000  1.0
  C  C302  1  0.89668000  0.44326000  0.94396000  1.0
  C  C303  1  0.89575000  0.41593000  0.94705000  1.0
  C  C304  1  0.86008000  0.41796000  0.97026000  1.0
  C  C305  1  0.83310000  0.44700000  0.98569000  1.0
  C  C306  1  0.54312000  0.00976000  0.53275000  1.0
  C  C307  1  0.55972000  0.01589000  0.50865000  1.0
  C  C308  1  0.60728000  0.00126000  0.49458000  1.0
  C  C309  1  0.62912000  0.98390000  0.50774000  1.0
  C  C310  1  0.73834000  0.92003000  0.45822000  1.0
  C  C311  1  0.73745000  0.92461000  0.48922000  1.0
  C  C312  1  0.70193000  0.94836000  0.50975000  1.0
  C  C313  1  0.67505000  0.96276000  0.49505000  1.0
  C  C314  1  0.55843000  0.43391000  0.50734000  1.0
  C  C315  1  0.55242000  0.46375000  0.53501000  1.0
  C  C316  1  0.51594000  0.48371000  0.53161000  1.0
  C  C317  1  0.49338000  0.46971000  0.50117000  1.0
  C  C318  1  0.36098000  0.50430000  0.48804000  1.0
  C  C319  1  0.38116000  0.48141000  0.45827000  1.0
  C  C320  1  0.42907000  0.46857000  0.46030000  1.0
  C  C321  1  0.44755000  0.48144000  0.49158000  1.0
  C  C322  1  0.19436000  0.46326000  0.95174000  1.0
  C  C323  1  0.20652000  0.43332000  0.94810000  1.0
  C  C324  1  0.25306000  0.43309000  0.96321000  1.0
  C  C325  1  0.27842000  0.46266000  0.97847000  1.0
  C  C326  1  0.38986000  0.47476000  0.04034000  1.0
  C  C327  1  0.39077000  0.50091000  0.03530000  1.0
  C  C328  1  0.35422000  0.49851000  0.01236000  1.0
  C  C329  1  0.32486000  0.47033000  0.99908000  1.0
  C  C330  1  0.80787000  0.71121000  0.32283000  1.0
  C  C331  1  0.84356000  0.69560000  0.29787000  1.0
  C  C332  1  0.82077000  0.67141000  0.26943000  1.0
  C  C333  1  0.76704000  0.66866000  0.27184000  1.0
  C  C334  1  0.69226000  0.59322000  0.20435000  1.0
  C  C335  1  0.65567000  0.61631000  0.22376000  1.0
  C  C336  1  0.67823000  0.64481000  0.24783000  1.0
  C  C337  1  0.73256000  0.64442000  0.24728000  1.0
  C  C338  1  0.59490000  0.31118000  0.57977000  1.0
  C  C339  1  0.54479000  0.31216000  0.59156000  1.0
  C  C340  1  0.52479000  0.28199000  0.58331000  1.0
  C  C341  1  0.55872000  0.25693000  0.56471000  1.0
  C  C342  1  0.52996000  0.17354000  0.55866000  1.0
  C  C343  1  0.57353000  0.17034000  0.53995000  1.0
  C  C344  1  0.58516000  0.19807000  0.53855000  1.0
  C  C345  1  0.55111000  0.22334000  0.55650000  1.0
  C  C346  1  0.36498000  0.53477000  0.35367000  1.0
  C  C347  1  0.41174000  0.51867000  0.34071000  1.0
  C  C348  1  0.42440000  0.51605000  0.31117000  1.0
  C  C349  1  0.38785000  0.53034000  0.30088000  1.0
  C  C350  1  0.42938000  0.54936000  0.23293000  1.0
  C  C351  1  0.37791000  0.55911000  0.24199000  1.0
  C  C352  1  0.35869000  0.55202000  0.26490000  1.0
  C  C353  1  0.39475000  0.53650000  0.27403000  1.0
  C  C354  1  0.19229000  0.33740000  0.76888000  1.0
  C  C355  1  0.15604000  0.31697000  0.74618000  1.0
  C  C356  1  0.17857000  0.28954000  0.72051000  1.0
  C  C357  1  0.23257000  0.28806000  0.72292000  1.0
  C  C358  1  0.30873000  0.21940000  0.64855000  1.0
  C  C359  1  0.34320000  0.23419000  0.67436000  1.0
  C  C360  1  0.32021000  0.25916000  0.70226000  1.0
  C  C361  1  0.26739000  0.26359000  0.69867000  1.0
  C  C362  1  0.13961000  0.61810000  0.38819000  1.0
  C  C363  1  0.17412000  0.64396000  0.40044000  1.0
  C  C364  1  0.15181000  0.67215000  0.40373000  1.0
  C  C365  1  0.09944000  0.66873000  0.39477000  1.0
  C  C366  1  0.02746000  0.74043000  0.39231000  1.0
  C  C367  1  0.99034000  0.71777000  0.38910000  1.0
  C  C368  1  0.01167000  0.69153000  0.39035000  1.0
  C  C369  1  0.06555000  0.69347000  0.39478000  1.0
  C  C370  1  0.97231000  0.37725000  0.73720000  1.0
  C  C371  1  0.00885000  0.38568000  0.72125000  1.0
  C  C372  1  0.98684000  0.38986000  0.69681000  1.0
  C  C373  1  0.93290000  0.38560000  0.69421000  1.0
  C  C374  1  0.85792000  0.37793000  0.61884000  1.0
  C  C375  1  0.82174000  0.38382000  0.64286000  1.0
  C  C376  1  0.84457000  0.38822000  0.67127000  1.0
  C  C377  1  0.89880000  0.38621000  0.66994000  1.0
  S  S378  1  0.95609000  0.78374000  0.30330000  1.0
  S  S379  1  0.95635000  0.82601000  0.47234000  1.0
  S  S380  1  0.71960000  0.28820000  0.43989000  1.0
  S  S381  1  0.80636000  0.45070000  0.58639000  1.0
  S  S382  1  0.57231000  0.41346000  0.12074000  1.0
  S  S383  1  0.63059000  0.56375000  0.10307000  1.0
  S  S384  1  0.42512000  0.09532000  0.66150000  1.0
  S  S385  1  0.46349000  0.08223000  0.49416000  1.0
  S  S386  1  0.24113000  0.63103000  0.52710000  1.0
  S  S387  1  0.29623000  0.46711000  0.37271000  1.0
  S  S388  1  0.11621000  0.47008000  0.81289000  1.0
  S  S389  1  0.11984000  0.34092000  0.85196000  1.0
  S  S390  1  0.08408000  0.94481000  0.44245000  1.0
  S  S391  1  0.18312000  0.99028000  0.52620000  1.0
  S  S392  1  0.99389000  0.47253000  0.45892000  1.0
  S  S393  1  0.89899000  0.42454000  0.46159000  1.0
  S  S394  1  0.74762000  0.42844000  0.00971000  1.0
  S  S395  1  0.85356000  0.46975000  0.97037000  1.0
  S  S396  1  0.58857000  0.98636000  0.53649000  1.0
  S  S397  1  0.69544000  0.94588000  0.45682000  1.0
  S  S398  1  0.51872000  0.43280000  0.47889000  1.0
  S  S399  1  0.40369000  0.50848000  0.51668000  1.0
  S  S400  1  0.24234000  0.48916000  0.97353000  1.0
  S  S401  1  0.34437000  0.44876000  0.01586000  1.0
  S  S402  1  0.74826000  0.69562000  0.30922000  1.0
  S  S403  1  0.75234000  0.60878000  0.21709000  1.0
  S  S404  1  0.61376000  0.27243000  0.55847000  1.0
  S  S405  1  0.50642000  0.21097000  0.57376000  1.0
  S  S406  1  0.33965000  0.54593000  0.32847000  1.0
  S  S407  1  0.45064000  0.53142000  0.25329000  1.0
  S  S408  1  0.25202000  0.32082000  0.75681000  1.0
  S  S409  1  0.24983000  0.23693000  0.66093000  1.0
  S  S410  1  0.08141000  0.63074000  0.38236000  1.0
  S  S411  1  0.08639000  0.72763000  0.39703000  1.0
  S  S412  1  0.91298000  0.37603000  0.72160000  1.0
  S  S413  1  0.91815000  0.37875000  0.63348000  1.0
  N  N414  1  0.82081000  0.84896000  0.40076000  1.0
  N  N415  1  0.96071000  0.80897000  0.38855000  1.0
  N  N416  1  0.88517000  0.81417000  0.34958000  1.0
  N  N417  1  0.89518000  0.84642000  0.44115000  1.0
  N  N418  1  0.92223000  0.86977000  0.40189000  1.0
  N  N419  1  0.85473000  0.79072000  0.38998000  1.0
  N  N420  1  0.64446000  0.37532000  0.51728000  1.0
  N  N421  1  0.78489000  0.36274000  0.54409000  1.0
  N  N422  1  0.71106000  0.32393000  0.50370000  1.0
  N  N423  1  0.72164000  0.41631000  0.55643000  1.0
  N  N424  1  0.74747000  0.37432000  0.49498000  1.0
  N  N425  1  0.68119000  0.36794000  0.56717000  1.0
  N  N426  1  0.48075000  0.48621000  0.10756000  1.0
  N  N427  1  0.62133000  0.51732000  0.14517000  1.0
  N  N428  1  0.55186000  0.47599000  0.14587000  1.0
  N  N429  1  0.55303000  0.52711000  0.10414000  1.0
  N  N430  1  0.58400000  0.46673000  0.08557000  1.0
  N  N431  1  0.51612000  0.53805000  0.16414000  1.0
  N  N432  1  0.31996000  0.08201000  0.57710000  1.0
  N  N433  1  0.45915000  0.11996000  0.58271000  1.0
  N  N434  1  0.39031000  0.11916000  0.62527000  1.0
  N  N435  1  0.39004000  0.08005000  0.53248000  1.0
  N  N436  1  0.42313000  0.05982000  0.57300000  1.0
  N  N437  1  0.35436000  0.13827000  0.58296000  1.0
  N  N438  1  0.14139000  0.54250000  0.45066000  1.0
  N  N439  1  0.28373000  0.55510000  0.42701000  1.0
  N  N440  1  0.20675000  0.59402000  0.46704000  1.0
  N  N441  1  0.21820000  0.50175000  0.41146000  1.0
  N  N442  1  0.24186000  0.54222000  0.47417000  1.0
  N  N443  1  0.18181000  0.55190000  0.40350000  1.0
  N  N444  1  0.98099000  0.43413000  0.87521000  1.0
  N  N445  1  0.12210000  0.40878000  0.83644000  1.0
  N  N446  1  0.04562000  0.45270000  0.84224000  1.0
  N  N447  1  0.05623000  0.39141000  0.87205000  1.0
  N  N448  1  0.08172000  0.45456000  0.89735000  1.0
  N  N449  1  0.01687000  0.38828000  0.81669000  1.0
