# generated using pymatgen
data_AgH18(C12N5)2
_symmetry_space_group_name_H-M   'P 1'
_cell_length_a   30.96716807
_cell_length_b   30.96620000
_cell_length_c   35.63070000
_cell_angle_alpha   89.99900000
_cell_angle_beta   89.99900003
_cell_angle_gamma   60.00110232
_symmetry_Int_Tables_number   1
_chemical_formula_structural   AgH18(C12N5)2
_chemical_formula_sum   'Ag6 H108 C144 N60'
_cell_volume   29590.28960825
_cell_formula_units_Z   6
loop_
 _symmetry_equiv_pos_site_id
 _symmetry_equiv_pos_as_xyz
  1  'x, y, z'
loop_
 _atom_site_type_symbol
 _atom_site_label
 _atom_site_symmetry_multiplicity
 _atom_site_fract_x
 _atom_site_fract_y
 _atom_site_fract_z
 _atom_site_occupancy
  Ag  Ag0  1  0.71843000  0.74044000  0.37850000  1.0
  Ag  Ag1  1  0.47011000  0.22984000  0.20718000  1.0
  Ag  Ag2  1  0.71647000  0.47624000  0.04432000  1.0
  Ag  Ag3  1  0.20450000  0.23097000  0.87727000  1.0
  Ag  Ag4  1  0.44964000  0.74152000  0.70997000  1.0
  Ag  Ag5  1  0.21146000  0.48835000  0.54341000  1.0
  H  H6  1  0.55660000  0.86622000  0.31528000  1.0
  H  H7  1  0.61496000  0.78834000  0.34752000  1.0
  H  H8  1  0.72247000  0.83377000  0.35610000  1.0
  H  H9  1  0.66656000  0.91311000  0.32403000  1.0
  H  H10  1  0.68452000  0.68471000  0.42967000  1.0
  H  H11  1  0.66931000  0.82811000  0.43147000  1.0
  H  H12  1  0.63283000  0.70359000  0.48656000  1.0
  H  H13  1  0.61671000  0.85070000  0.48791000  1.0
  H  H14  1  0.69506000  0.63379000  0.28013000  1.0
  H  H15  1  0.69413000  0.66595000  0.34368000  1.0
  H  H16  1  0.75966000  0.74828000  0.30345000  1.0
  H  H17  1  0.76162000  0.71851000  0.23898000  1.0
  H  H18  1  0.85273000  0.57261000  0.42806000  1.0
  H  H19  1  0.77329000  0.63214000  0.39826000  1.0
  H  H20  1  0.80606000  0.74856000  0.40929000  1.0
  H  H21  1  0.88673000  0.69168000  0.43934000  1.0
  H  H22  1  0.52337000  0.35322000  0.16260000  1.0
  H  H23  1  0.46499000  0.32705000  0.18565000  1.0
  H  H24  1  0.57995000  0.17640000  0.18928000  1.0
  H  H25  1  0.64118000  0.19899000  0.16640000  1.0
  H  H26  1  0.37957000  0.22970000  0.23604000  1.0
  H  H27  1  0.46453000  0.29300000  0.27498000  1.0
  H  H28  1  0.32483000  0.26083000  0.29137000  1.0
  H  H29  1  0.41121000  0.32626000  0.33122000  1.0
  H  H30  1  0.32563000  0.34951000  0.12384000  1.0
  H  H31  1  0.38095000  0.32393000  0.17903000  1.0
  H  H32  1  0.46928000  0.17891000  0.13488000  1.0
  H  H33  1  0.41581000  0.20063000  0.07889000  1.0
  H  H34  1  0.46342000  0.06989000  0.21949000  1.0
  H  H35  1  0.43949000  0.15344000  0.19596000  1.0
  H  H36  1  0.55336000  0.15610000  0.25939000  1.0
  H  H37  1  0.58012000  0.07223000  0.28468000  1.0
  H  H38  1  0.90061000  0.40690000  0.01307000  1.0
  H  H39  1  0.81863000  0.46607000  0.04026000  1.0
  H  H40  1  0.75708000  0.38002000  0.00018000  1.0
  H  H41  1  0.83799000  0.31831000  0.97269000  1.0
  H  H42  1  0.68902000  0.58463000  0.04627000  1.0
  H  H43  1  0.73501000  0.47181000  0.12864000  1.0
  H  H44  1  0.69107000  0.64265000  0.09208000  1.0
  H  H45  1  0.73715000  0.52787000  0.17681000  1.0
  H  H46  1  0.72542000  0.57331000  0.93255000  1.0
  H  H47  1  0.75271000  0.52564000  0.99107000  1.0
  H  H48  1  0.62414000  0.51115000  0.99385000  1.0
  H  H49  1  0.59321000  0.55925000  0.93505000  1.0
  H  H50  1  0.59585000  0.41970000  0.09174000  1.0
  H  H51  1  0.61912000  0.47624000  0.06048000  1.0
  H  H52  1  0.77106000  0.38027000  0.08668000  1.0
  H  H53  1  0.75163000  0.32149000  0.11811000  1.0
  H  H54  1  0.32294000  0.04905000  0.84128000  1.0
  H  H55  1  0.29919000  0.13065000  0.86961000  1.0
  H  H56  1  0.15187000  0.19160000  0.82920000  1.0
  H  H57  1  0.17200000  0.11146000  0.80007000  1.0
  H  H58  1  0.19256000  0.32656000  0.90893000  1.0
  H  H59  1  0.27812000  0.17478000  0.93939000  1.0
  H  H60  1  0.22565000  0.35141000  0.96245000  1.0
  H  H61  1  0.31323000  0.19584000  0.99362000  1.0
  H  H62  1  0.32398000  0.25803000  0.79570000  1.0
  H  H63  1  0.29918000  0.22315000  0.84805000  1.0
  H  H64  1  0.14840000  0.30337000  0.81429000  1.0
  H  H65  1  0.16933000  0.34011000  0.76101000  1.0
  H  H66  1  0.02755000  0.34902000  0.92409000  1.0
  H  H67  1  0.10873000  0.32621000  0.89559000  1.0
  H  H68  1  0.16044000  0.17305000  0.91316000  1.0
  H  H69  1  0.08020000  0.19209000  0.94133000  1.0
  H  H70  1  0.48155000  0.57424000  0.65971000  1.0
  H  H71  1  0.50135000  0.63235000  0.69245000  1.0
  H  H72  1  0.35584000  0.75233000  0.67309000  1.0
  H  H73  1  0.33235000  0.69691000  0.64042000  1.0
  H  H74  1  0.54319000  0.73648000  0.73636000  1.0
  H  H75  1  0.45605000  0.67650000  0.77691000  1.0
  H  H76  1  0.60310000  0.69780000  0.78801000  1.0
  H  H77  1  0.51399000  0.63606000  0.82965000  1.0
  H  H78  1  0.57849000  0.70209000  0.60631000  1.0
  H  H79  1  0.54009000  0.68356000  0.66001000  1.0
  H  H80  1  0.42042000  0.83206000  0.66171000  1.0
  H  H81  1  0.45621000  0.85424000  0.60840000  1.0
  H  H82  1  0.39798000  0.91144000  0.76762000  1.0
  H  H83  1  0.45583000  0.82930000  0.74044000  1.0
  H  H84  1  0.34131000  0.79319000  0.73403000  1.0
  H  H85  1  0.28053000  0.87460000  0.76061000  1.0
  H  H86  1  0.05491000  0.47707000  0.52618000  1.0
  H  H87  1  0.13824000  0.45336000  0.55005000  1.0
  H  H88  1  0.13312000  0.57860000  0.49839000  1.0
  H  H89  1  0.04917000  0.60552000  0.47310000  1.0
  H  H90  1  0.30340000  0.40449000  0.57739000  1.0
  H  H91  1  0.15405000  0.49001000  0.61393000  1.0
  H  H92  1  0.32656000  0.35372000  0.63477000  1.0
  H  H93  1  0.17340000  0.44026000  0.67199000  1.0
  H  H94  1  0.25076000  0.33791000  0.46264000  1.0
  H  H95  1  0.21938000  0.39302000  0.51773000  1.0
  H  H96  1  0.25716000  0.49386000  0.46851000  1.0
  H  H97  1  0.29077000  0.44033000  0.41243000  1.0
  H  H98  1  0.37591000  0.48625000  0.55061000  1.0
  H  H99  1  0.31687000  0.46047000  0.52937000  1.0
  H  H100  1  0.20008000  0.57614000  0.59144000  1.0
  H  H101  1  0.25667000  0.60500000  0.61436000  1.0
  H  H102  1  0.96574000  0.63182000  0.46227000  1.0
  H  H103  1  0.60870000  0.98853000  0.29544000  1.0
  H  H104  1  0.57807000  0.36586000  0.12635000  1.0
  H  H105  1  0.96018000  0.36458000  0.96462000  1.0
  H  H106  1  0.34113000  0.98531000  0.79804000  1.0
  H  H107  1  0.31333000  0.63321000  0.62875000  1.0
  H  H108  1  0.59250000  0.72301000  0.54564000  1.0
  H  H109  1  0.34171000  0.37349000  0.37026000  1.0
  H  H110  1  0.72093000  0.59227000  0.22169000  1.0
  H  H111  1  0.35130000  0.22027000  0.03601000  1.0
  H  H112  1  0.56808000  0.60575000  0.87889000  1.0
  H  H113  1  0.19348000  0.37561000  0.71639000  1.0
  C  C114  1  0.72847000  0.67365000  0.25424000  1.0
  C  C115  1  0.71031000  0.65812000  0.28444000  1.0
  C  C116  1  0.70964000  0.67632000  0.32049000  1.0
  C  C117  1  0.74628000  0.72264000  0.29793000  1.0
  C  C118  1  0.74715000  0.70585000  0.26146000  1.0
  C  C119  1  0.84375000  0.61092000  0.42434000  1.0
  C  C120  1  0.79866000  0.64449000  0.40741000  1.0
  C  C121  1  0.81711000  0.70979000  0.41354000  1.0
  C  C122  1  0.86284000  0.67737000  0.43052000  1.0
  C  C123  1  0.87650000  0.62719000  0.43627000  1.0
  C  C124  1  0.60671000  0.89633000  0.31686000  1.0
  C  C125  1  0.59264000  0.86043000  0.32394000  1.0
  C  C126  1  0.62553000  0.81622000  0.34224000  1.0
  C  C127  1  0.68585000  0.84173000  0.34708000  1.0
  C  C128  1  0.65399000  0.88668000  0.32887000  1.0
  C  C129  1  0.62032000  0.77895000  0.49201000  1.0
  C  C130  1  0.64055000  0.73154000  0.47544000  1.0
  C  C131  1  0.66993000  0.72063000  0.44316000  1.0
  C  C132  1  0.66126000  0.80113000  0.44405000  1.0
  C  C133  1  0.63137000  0.81378000  0.47604000  1.0
  C  C134  1  0.36593000  0.27701000  0.09681000  1.0
  C  C135  1  0.35701000  0.31187000  0.12530000  1.0
  C  C136  1  0.38829000  0.29762000  0.15658000  1.0
  C  C137  1  0.43776000  0.21618000  0.13186000  1.0
  C  C138  1  0.40716000  0.22865000  0.10023000  1.0
  C  C139  1  0.48416000  0.08760000  0.22865000  1.0
  C  C140  1  0.47058000  0.13490000  0.21509000  1.0
  C  C141  1  0.53447000  0.13635000  0.25069000  1.0
  C  C142  1  0.54956000  0.08871000  0.26491000  1.0
  C  C143  1  0.52394000  0.06386000  0.25406000  1.0
  C  C144  1  0.58733000  0.27805000  0.16236000  1.0
  C  C145  1  0.53696000  0.31412000  0.16791000  1.0
  C  C146  1  0.50374000  0.29947000  0.18118000  1.0
  C  C147  1  0.56827000  0.21498000  0.18336000  1.0
  C  C148  1  0.60279000  0.22795000  0.17038000  1.0
  C  C149  1  0.36346000  0.29622000  0.31586000  1.0
  C  C150  1  0.35510000  0.26859000  0.28854000  1.0
  C  C151  1  0.38605000  0.25084000  0.25719000  1.0
  C  C152  1  0.43355000  0.28659000  0.27897000  1.0
  C  C153  1  0.40309000  0.30557000  0.31069000  1.0
  C  C154  1  0.65685000  0.57041000  0.92879000  1.0
  C  C155  1  0.70222000  0.56022000  0.94515000  1.0
  C  C156  1  0.71804000  0.53294000  0.97833000  1.0
  C  C157  1  0.64579000  0.52508000  0.97996000  1.0
  C  C158  1  0.62841000  0.55238000  0.94657000  1.0
  C  C159  1  0.63459000  0.41005000  0.09123000  1.0
  C  C160  1  0.64761000  0.44224000  0.07342000  1.0
  C  C161  1  0.73283000  0.38838000  0.08802000  1.0
  C  C162  1  0.72159000  0.35515000  0.10585000  1.0
  C  C163  1  0.67199000  0.36559000  0.10752000  1.0
  C  C164  1  0.87581000  0.35784000  0.99039000  1.0
  C  C165  1  0.86977000  0.40017000  0.00956000  1.0
  C  C166  1  0.82348000  0.43362000  0.02516000  1.0
  C  C167  1  0.78895000  0.38529000  0.00275000  1.0
  C  C168  1  0.83476000  0.35046000  0.98728000  1.0
  C  C169  1  0.71437000  0.59002000  0.13833000  1.0
  C  C170  1  0.70047000  0.60556000  0.10110000  1.0
  C  C171  1  0.69921000  0.57270000  0.07497000  1.0
  C  C172  1  0.72466000  0.50965000  0.12125000  1.0
  C  C173  1  0.72587000  0.54157000  0.14850000  1.0
  C  C174  1  0.24873000  0.30219000  0.77382000  1.0
  C  C175  1  0.28511000  0.26881000  0.79898000  1.0
  C  C176  1  0.27130000  0.24893000  0.82869000  1.0
  C  C177  1  0.18666000  0.29401000  0.80974000  1.0
  C  C178  1  0.19878000  0.31486000  0.77959000  1.0
  C  C179  1  0.05600000  0.31009000  0.92233000  1.0
  C  C180  1  0.10195000  0.29735000  0.90608000  1.0
  C  C181  1  0.13090000  0.21141000  0.91576000  1.0
  C  C182  1  0.08536000  0.22238000  0.93171000  1.0
  C  C183  1  0.04714000  0.27224000  0.93505000  1.0
  C  C184  1  0.24921000  0.07354000  0.81827000  1.0
  C  C185  1  0.28528000  0.07970000  0.83773000  1.0
  C  C186  1  0.27195000  0.12583000  0.85396000  1.0
  C  C187  1  0.18924000  0.16003000  0.83135000  1.0
  C  C188  1  0.20077000  0.11457000  0.81500000  1.0
  C  C189  1  0.27244000  0.27571000  0.98259000  1.0
  C  C190  1  0.23794000  0.31235000  0.95816000  1.0
  C  C191  1  0.21908000  0.29846000  0.92781000  1.0
  C  C192  1  0.26719000  0.21329000  0.94487000  1.0
  C  C193  1  0.28717000  0.22546000  0.97554000  1.0
  C  C194  1  0.52033000  0.77991000  0.60287000  1.0
  C  C195  1  0.54350000  0.73124000  0.61751000  1.0
  C  C196  1  0.52192000  0.72059000  0.64800000  1.0
  C  C197  1  0.45489000  0.80398000  0.64911000  1.0
  C  C198  1  0.47533000  0.81639000  0.61896000  1.0
  C  C199  1  0.38436000  0.88631000  0.76086000  1.0
  C  C200  1  0.41738000  0.83970000  0.74547000  1.0
  C  C201  1  0.35311000  0.81949000  0.74165000  1.0
  C  C202  1  0.31880000  0.86571000  0.75675000  1.0
  C  C203  1  0.33413000  0.90004000  0.76625000  1.0
  C  C204  1  0.40513000  0.63078000  0.64758000  1.0
  C  C205  1  0.45307000  0.61304000  0.66249000  1.0
  C  C206  1  0.46441000  0.64575000  0.68110000  1.0
  C  C207  1  0.38266000  0.71305000  0.67045000  1.0
  C  C208  1  0.36949000  0.68148000  0.65196000  1.0
  C  C209  1  0.56370000  0.66357000  0.81338000  1.0
  C  C210  1  0.57124000  0.69236000  0.78647000  1.0
  C  C211  1  0.53740000  0.71441000  0.75714000  1.0
  C  C212  1  0.48847000  0.68079000  0.77993000  1.0
  C  C213  1  0.52149000  0.65794000  0.80985000  1.0
  C  C214  1  0.27355000  0.38454000  0.43299000  1.0
  C  C215  1  0.25255000  0.37195000  0.46297000  1.0
  C  C216  1  0.23453000  0.40315000  0.49418000  1.0
  C  C217  1  0.25596000  0.45961000  0.46664000  1.0
  C  C218  1  0.27520000  0.42903000  0.43502000  1.0
  C  C219  1  0.33748000  0.50719000  0.55982000  1.0
  C  C220  1  0.30404000  0.49260000  0.54747000  1.0
  C  C221  1  0.23855000  0.55749000  0.58232000  1.0
  C  C222  1  0.27083000  0.57363000  0.59530000  1.0
  C  C223  1  0.32123000  0.54786000  0.58435000  1.0
  C  C224  1  0.04490000  0.54340000  0.49762000  1.0
  C  C225  1  0.07077000  0.50044000  0.51981000  1.0
  C  C226  1  0.11794000  0.48696000  0.53357000  1.0
  C  C227  1  0.11501000  0.55727000  0.50461000  1.0
  C  C228  1  0.06738000  0.57238000  0.49033000  1.0
  C  C229  1  0.25179000  0.39271000  0.65818000  1.0
  C  C230  1  0.28843000  0.38352000  0.63119000  1.0
  C  C231  1  0.27553000  0.41236000  0.59867000  1.0
  C  C232  1  0.19169000  0.46014000  0.61909000  1.0
  C  C233  1  0.20280000  0.43168000  0.65189000  1.0
  C  C234  1  0.92390000  0.59151000  0.45495000  1.0
  C  C235  1  0.96289000  0.59864000  0.46569000  1.0
  C  C236  1  0.57196000  0.94274000  0.29658000  1.0
  C  C237  1  0.57762000  0.98337000  0.28840000  1.0
  C  C238  1  0.66053000  0.32941000  0.12573000  1.0
  C  C239  1  0.61431000  0.33444000  0.13289000  1.0
  C  C240  1  0.99828000  0.28396000  0.95093000  1.0
  C  C241  1  0.96059000  0.32946000  0.96374000  1.0
  C  C242  1  0.29716000  0.95006000  0.78056000  1.0
  C  C243  1  0.30573000  0.98676000  0.79462000  1.0
  C  C244  1  0.35780000  0.56123000  0.59899000  1.0
  C  C245  1  0.34889000  0.60270000  0.61967000  1.0
  C  C246  1  0.58654000  0.79332000  0.52485000  1.0
  C  C247  1  0.57677000  0.76295000  0.54758000  1.0
  C  C248  1  0.29313000  0.35109000  0.40008000  1.0
  C  C249  1  0.32531000  0.34990000  0.37265000  1.0
  C  C250  1  0.71853000  0.62402000  0.16541000  1.0
  C  C251  1  0.72155000  0.62046000  0.20414000  1.0
  C  C252  1  0.33174000  0.29139000  0.06426000  1.0
  C  C253  1  0.32871000  0.26040000  0.03777000  1.0
  C  C254  1  0.64037000  0.59982000  0.89359000  1.0
  C  C255  1  0.59749000  0.61388000  0.87290000  1.0
  C  C256  1  0.26531000  0.36100000  0.69214000  1.0
  C  C257  1  0.23375000  0.35633000  0.71715000  1.0
  N  N258  1  0.67114000  0.80765000  0.35315000  1.0
  N  N259  1  0.67933000  0.75545000  0.42812000  1.0
  N  N260  1  0.72687000  0.70843000  0.32636000  1.0
  N  N261  1  0.78620000  0.69282000  0.40257000  1.0
  N  N262  1  0.51991000  0.25066000  0.18853000  1.0
  N  N263  1  0.42465000  0.25956000  0.25325000  1.0
  N  N264  1  0.42753000  0.25046000  0.15927000  1.0
  N  N265  1  0.49547000  0.15834000  0.22640000  1.0
  N  N266  1  0.78430000  0.42572000  0.02134000  1.0
  N  N267  1  0.71184000  0.52558000  0.08525000  1.0
  N  N268  1  0.68985000  0.51612000  0.99508000  1.0
  N  N269  1  0.69610000  0.43069000  0.07202000  1.0
  N  N270  1  0.22452000  0.16453000  0.85076000  1.0
  N  N271  1  0.23377000  0.24971000  0.92192000  1.0
  N  N272  1  0.22285000  0.26170000  0.83337000  1.0
  N  N273  1  0.13804000  0.24871000  0.90295000  1.0
  N  N274  1  0.42943000  0.69469000  0.68450000  1.0
  N  N275  1  0.49711000  0.70826000  0.75443000  1.0
  N  N276  1  0.47863000  0.75692000  0.66319000  1.0
  N  N277  1  0.40111000  0.80775000  0.73588000  1.0
  N  N278  1  0.13921000  0.51502000  0.52554000  1.0
  N  N279  1  0.22796000  0.44983000  0.59332000  1.0
  N  N280  1  0.23639000  0.44601000  0.49538000  1.0
  N  N281  1  0.25583000  0.51739000  0.55909000  1.0
  N  N282  1  0.98006000  0.52413000  0.48104000  1.0
  N  N283  1  0.93572000  0.54485000  0.46484000  1.0
  N  N284  1  0.99722000  0.55564000  0.48188000  1.0
  N  N285  1  0.50748000  0.99587000  0.26575000  1.0
  N  N286  1  0.52800000  0.95167000  0.28215000  1.0
  N  N287  1  0.53651000  0.01574000  0.26912000  1.0
  N  N288  1  0.67197000  0.26205000  0.15211000  1.0
  N  N289  1  0.69562000  0.28404000  0.13802000  1.0
  N  N290  1  0.62308000  0.29160000  0.14943000  1.0
  N  N291  1  0.93733000  0.27445000  0.96900000  1.0
  N  N292  1  0.98284000  0.25043000  0.95461000  1.0
  N  N293  1  0.92328000  0.32191000  0.97482000  1.0
  N  N294  1  0.22638000  0.01389000  0.79427000  1.0
  N  N295  1  0.24751000  0.96798000  0.78072000  1.0
  N  N296  1  0.26059000  0.02600000  0.80285000  1.0
  N  N297  1  0.42842000  0.55521000  0.61181000  1.0
  N  N298  1  0.40754000  0.53244000  0.59454000  1.0
  N  N299  1  0.39396000  0.59751000  0.62706000  1.0
  N  N300  1  0.53217000  0.83950000  0.56598000  1.0
  N  N301  1  0.55831000  0.84067000  0.53701000  1.0
  N  N302  1  0.54266000  0.79323000  0.57290000  1.0
  N  N303  1  0.30629000  0.29279000  0.36117000  1.0
  N  N304  1  0.28205000  0.31512000  0.39228000  1.0
  N  N305  1  0.33262000  0.31294000  0.34891000  1.0
  N  N306  1  0.72516000  0.68545000  0.18648000  1.0
  N  N307  1  0.72084000  0.66477000  0.15527000  1.0
  N  N308  1  0.72560000  0.65957000  0.21621000  1.0
  N  N309  1  0.27251000  0.33669000  0.02605000  1.0
  N  N310  1  0.29631000  0.33860000  0.05632000  1.0
  N  N311  1  0.29120000  0.29007000  0.01443000  1.0
  N  N312  1  0.64091000  0.64231000  0.84611000  1.0
  N  N313  1  0.66654000  0.61806000  0.87621000  1.0
  N  N314  1  0.59925000  0.64039000  0.84343000  1.0
  N  N315  1  0.31022000  0.30640000  0.73349000  1.0
  N  N316  1  0.31261000  0.32949000  0.70297000  1.0
  N  N317  1  0.26324000  0.32176000  0.74255000  1.0
