# generated using pymatgen
data_ZnH8(C7O2)2
_symmetry_space_group_name_H-M   'P 1'
_cell_length_a   24.63690000
_cell_length_b   24.63690000
_cell_length_c   49.50100000
_cell_angle_alpha   90.00000000
_cell_angle_beta   90.00000000
_cell_angle_gamma   94.70500000
_symmetry_Int_Tables_number   1
_chemical_formula_structural   ZnH8(C7O2)2
_chemical_formula_sum   'Zn16 H128 C224 O64'
_cell_volume   29944.71273606
_cell_formula_units_Z   16
loop_
 _symmetry_equiv_pos_site_id
 _symmetry_equiv_pos_as_xyz
  1  'x, y, z'
loop_
 _atom_site_type_symbol
 _atom_site_label
 _atom_site_symmetry_multiplicity
 _atom_site_fract_x
 _atom_site_fract_y
 _atom_site_fract_z
 _atom_site_occupancy
  Zn  Zn0  1  0.22578000  0.20237000  0.86680000  1.0
  Zn  Zn1  1  0.30573000  0.14850000  0.85394000  1.0
  Zn  Zn2  1  0.71106000  0.69692000  0.61434000  1.0
  Zn  Zn3  1  0.64370000  0.79399000  0.59990000  1.0
  Zn  Zn4  1  0.32315000  0.32779000  0.37567000  1.0
  Zn  Zn5  1  0.24093000  0.40860000  0.35650000  1.0
  Zn  Zn6  1  0.82950000  0.83272000  0.11978000  1.0
  Zn  Zn7  1  0.89953000  0.73273000  0.12275000  1.0
  Zn  Zn8  1  0.73378000  0.68706000  0.37716000  1.0
  Zn  Zn9  1  0.79855000  0.62342000  0.35818000  1.0
  Zn  Zn10  1  0.20732000  0.21040000  0.11641000  1.0
  Zn  Zn11  1  0.11532000  0.28624000  0.10348000  1.0
  Zn  Zn12  1  0.83006000  0.84186000  0.86597000  1.0
  Zn  Zn13  1  0.74986000  0.89601000  0.85461000  1.0
  Zn  Zn14  1  0.33479000  0.33598000  0.61192000  1.0
  Zn  Zn15  1  0.40190000  0.23891000  0.60008000  1.0
  H  H16  1  0.26199000  0.21817000  0.03467000  1.0
  H  H17  1  0.29104000  0.34282000  0.97390000  1.0
  H  H18  1  0.25575000  0.40980000  0.00473000  1.0
  H  H19  1  0.22187000  0.38226000  0.04990000  1.0
  H  H20  1  0.25204000  0.26147000  0.94900000  1.0
  H  H21  1  0.34786000  0.19655000  0.01247000  1.0
  H  H22  1  0.37857000  0.12847000  0.98093000  1.0
  H  H23  1  0.34821000  0.12599000  0.93375000  1.0
  H  H24  1  0.73163000  0.82720000  0.77804000  1.0
  H  H25  1  0.75655000  0.68118000  0.73307000  1.0
  H  H26  1  0.81664000  0.65269000  0.76892000  1.0
  H  H27  1  0.83271000  0.70782000  0.80990000  1.0
  H  H28  1  0.74491000  0.74136000  0.69773000  1.0
  H  H29  1  0.64698000  0.81015000  0.75951000  1.0
  H  H30  1  0.58629000  0.84085000  0.72474000  1.0
  H  H31  1  0.60126000  0.82142000  0.67703000  1.0
  H  H32  1  0.25625000  0.33433000  0.53283000  1.0
  H  H33  1  0.20318000  0.20464000  0.47785000  1.0
  H  H34  1  0.23727000  0.13773000  0.50912000  1.0
  H  H35  1  0.28285000  0.16746000  0.55137000  1.0
  H  H36  1  0.25753000  0.28340000  0.45103000  1.0
  H  H37  1  0.15943000  0.35537000  0.51108000  1.0
  H  H38  1  0.13093000  0.42072000  0.47724000  1.0
  H  H39  1  0.16520000  0.41924000  0.43068000  1.0
  H  H40  1  0.76712000  0.68768000  0.27983000  1.0
  H  H41  1  0.73741000  0.83889000  0.24048000  1.0
  H  H42  1  0.73399000  0.88334000  0.28474000  1.0
  H  H43  1  0.74364000  0.83132000  0.32658000  1.0
  H  H44  1  0.79633000  0.79855000  0.20889000  1.0
  H  H45  1  0.70696000  0.65781000  0.24436000  1.0
  H  H46  1  0.70959000  0.61008000  0.20098000  1.0
  H  H47  1  0.75534000  0.65435000  0.16163000  1.0
  H  H48  1  0.32236000  0.21948000  0.77824000  1.0
  H  H49  1  0.28520000  0.35951000  0.73146000  1.0
  H  H50  1  0.22363000  0.38542000  0.76732000  1.0
  H  H51  1  0.21264000  0.33192000  0.80912000  1.0
  H  H52  1  0.30068000  0.29709000  0.69682000  1.0
  H  H53  1  0.40638000  0.24416000  0.75967000  1.0
  H  H54  1  0.46957000  0.21612000  0.72540000  1.0
  H  H55  1  0.45174000  0.22889000  0.67738000  1.0
  H  H56  1  0.79017000  0.69511000  0.53521000  1.0
  H  H57  1  0.84947000  0.82329000  0.48071000  1.0
  H  H58  1  0.81658000  0.89154000  0.51164000  1.0
  H  H59  1  0.76832000  0.86317000  0.55341000  1.0
  H  H60  1  0.78991000  0.74519000  0.45418000  1.0
  H  H61  1  0.88872000  0.67189000  0.51346000  1.0
  H  H62  1  0.91458000  0.60546000  0.47947000  1.0
  H  H63  1  0.87847000  0.60716000  0.43319000  1.0
  H  H64  1  0.22962000  0.24776000  0.20104000  1.0
  H  H65  1  0.14211000  0.33795000  0.25950000  1.0
  H  H66  1  0.08887000  0.37386000  0.22313000  1.0
  H  H67  1  0.10145000  0.34626000  0.17636000  1.0
  H  H68  1  0.22385000  0.34106000  0.28052000  1.0
  H  H69  1  0.23045000  0.18947000  0.23715000  1.0
  H  H70  1  0.28079000  0.15307000  0.27470000  1.0
  H  H71  1  0.30036000  0.20688000  0.31572000  1.0
  H  H72  1  0.79410000  0.82406000  0.03664000  1.0
  H  H73  1  0.79171000  0.70546000  0.97231000  1.0
  H  H74  1  0.82953000  0.64046000  0.00315000  1.0
  H  H75  1  0.84932000  0.66479000  0.05038000  1.0
  H  H76  1  0.81627000  0.78807000  0.94905000  1.0
  H  H77  1  0.71348000  0.84134000  0.01283000  1.0
  H  H78  1  0.67606000  0.90594000  0.98165000  1.0
  H  H79  1  0.70548000  0.91161000  0.93439000  1.0
  H  H80  1  0.97305000  0.94488000  0.85241000  1.0
  H  H81  1  0.00743000  0.11015000  0.82476000  1.0
  H  H82  1  0.90966000  0.12194000  0.82396000  1.0
  H  H83  1  0.84254000  0.04663000  0.83598000  1.0
  H  H84  1  0.08253000  0.09953000  0.85315000  1.0
  H  H85  1  0.04784000  0.93551000  0.82375000  1.0
  H  H86  1  0.14556000  0.92361000  0.82267000  1.0
  H  H87  1  0.21280000  0.99828000  0.83539000  1.0
  H  H88  1  0.52389000  0.92268000  0.59444000  1.0
  H  H89  1  0.57973000  0.07856000  0.55959000  1.0
  H  H90  1  0.67140000  0.04820000  0.55560000  1.0
  H  H91  1  0.69071000  0.95635000  0.56980000  1.0
  H  H92  1  0.51648000  0.10688000  0.58935000  1.0
  H  H93  1  0.44590000  0.94347000  0.57288000  1.0
  H  H94  1  0.35498000  0.97426000  0.57927000  1.0
  H  H95  1  0.34270000  0.06975000  0.58955000  1.0
  H  H96  1  0.57743000  0.59199000  0.37410000  1.0
  H  H97  1  0.53800000  0.42623000  0.40059000  1.0
  H  H98  1  0.63497000  0.41145000  0.40097000  1.0
  H  H99  1  0.70392000  0.48547000  0.38941000  1.0
  H  H100  1  0.46541000  0.43693000  0.37303000  1.0
  H  H101  1  0.50031000  0.60409000  0.39820000  1.0
  H  H102  1  0.40351000  0.61844000  0.39466000  1.0
  H  H103  1  0.33656000  0.54352000  0.38211000  1.0
  H  H104  1  0.06563000  0.44755000  0.11441000  1.0
  H  H105  1  0.89581000  0.47827000  0.11543000  1.0
  H  H106  1  0.87206000  0.38786000  0.09586000  1.0
  H  H107  1  0.94300000  0.32497000  0.08746000  1.0
  H  H108  1  0.93977000  0.56564000  0.10710000  1.0
  H  H109  1  0.05960000  0.49296000  0.15587000  1.0
  H  H110  1  0.08324000  0.58109000  0.17768000  1.0
  H  H111  1  0.03466000  0.66111000  0.16591000  1.0
  H  H112  1  0.43318000  0.03057000  0.84187000  1.0
  H  H113  1  0.60115000  0.09018000  0.85692000  1.0
  H  H114  1  0.57479000  0.18282000  0.85568000  1.0
  H  H115  1  0.47940000  0.20158000  0.85061000  1.0
  H  H116  1  0.62154000  0.01287000  0.84039000  1.0
  H  H117  1  0.45546000  0.95781000  0.86228000  1.0
  H  H118  1  0.48169000  0.86534000  0.86546000  1.0
  H  H119  1  0.57632000  0.84502000  0.85919000  1.0
  H  H120  1  0.60141000  0.56865000  0.59259000  1.0
  H  H121  1  0.43958000  0.53668000  0.56012000  1.0
  H  H122  1  0.42914000  0.63480000  0.55892000  1.0
  H  H123  1  0.50328000  0.70085000  0.57353000  1.0
  H  H124  1  0.44673000  0.46255000  0.59101000  1.0
  H  H125  1  0.61179000  0.49344000  0.56265000  1.0
  H  H126  1  0.62212000  0.39525000  0.56258000  1.0
  H  H127  1  0.54639000  0.32967000  0.57577000  1.0
  H  H128  1  0.96928000  0.58722000  0.33999000  1.0
  H  H129  1  0.00068000  0.43393000  0.30348000  1.0
  H  H130  1  0.90225000  0.40830000  0.30128000  1.0
  H  H131  1  0.83668000  0.47046000  0.31786000  1.0
  H  H132  1  0.07220000  0.45122000  0.33896000  1.0
  H  H133  1  0.04504000  0.60967000  0.30706000  1.0
  H  H134  1  0.14371000  0.63468000  0.30764000  1.0
  H  H135  1  0.20735000  0.56943000  0.32310000  1.0
  H  H136  1  0.10213000  0.06270000  0.11441000  1.0
  H  H137  1  0.97140000  0.00033000  0.06206000  1.0
  H  H138  1  0.96518000  0.09179000  0.04340000  1.0
  H  H139  1  0.02632000  0.16885000  0.05918000  1.0
  H  H140  1  0.95237000  0.95311000  0.10336000  1.0
  H  H141  1  0.12796000  0.97323000  0.10316000  1.0
  H  H142  1  0.13092000  0.88096000  0.12161000  1.0
  H  H143  1  0.04646000  0.82304000  0.12975000  1.0
  C  C144  1  0.19305000  0.10075000  0.85186000  1.0
  C  C145  1  0.39131000  0.12859000  0.84716000  1.0
  C  C146  1  0.26253000  0.24007000  0.82227000  1.0
  C  C147  1  0.27994000  0.19226000  0.90920000  1.0
  C  C148  1  0.60343000  0.67949000  0.59287000  1.0
  C  C149  1  0.62042000  0.87729000  0.59059000  1.0
  C  C150  1  0.68071000  0.76526000  0.65497000  1.0
  C  C151  1  0.74276000  0.76077000  0.57111000  1.0
  C  C152  1  0.35586000  0.43802000  0.37170000  1.0
  C  C153  1  0.18233000  0.46648000  0.34165000  1.0
  C  C154  1  0.27230000  0.30973000  0.32650000  1.0
  C  C155  1  0.23879000  0.35276000  0.40988000  1.0
  C  C156  1  0.94240000  0.84860000  0.12011000  1.0
  C  C157  1  0.95168000  0.66502000  0.12974000  1.0
  C  C158  1  0.80832000  0.75437000  0.15938000  1.0
  C  C159  1  0.83565000  0.76115000  0.07539000  1.0
  C  C160  1  0.68653000  0.58975000  0.37596000  1.0
  C  C161  1  0.85898000  0.57027000  0.34066000  1.0
  C  C162  1  0.75837000  0.72343000  0.33128000  1.0
  C  C163  1  0.80562000  0.67516000  0.41312000  1.0
  C  C164  1  0.10594000  0.16745000  0.09723000  1.0
  C  C165  1  0.05147000  0.34376000  0.09852000  1.0
  C  C166  1  0.17018000  0.27476000  0.15691000  1.0
  C  C167  1  0.21513000  0.28062000  0.07134000  1.0
  C  C168  1  0.86258000  0.94356000  0.85146000  1.0
  C  C169  1  0.66386000  0.91612000  0.84959000  1.0
  C  C170  1  0.78998000  0.80396000  0.82219000  1.0
  C  C171  1  0.77933000  0.85216000  0.90933000  1.0
  C  C172  1  0.44444000  0.35179000  0.59231000  1.0
  C  C173  1  0.42049000  0.15311000  0.59495000  1.0
  C  C174  1  0.36631000  0.27405000  0.65429000  1.0
  C  C175  1  0.30446000  0.27032000  0.56933000  1.0
  C  C176  1  0.23866000  0.35239000  0.03695000  1.0
  C  C177  1  0.29777000  0.19380000  0.93780000  1.0
  C  C178  1  0.27992000  0.23264000  0.95591000  1.0
  C  C179  1  0.29778000  0.23422000  0.98299000  1.0
  C  C180  1  0.33326000  0.19609000  0.99183000  1.0
  C  C181  1  0.35103000  0.15752000  0.97397000  1.0
  C  C182  1  0.33365000  0.15640000  0.94714000  1.0
  C  C183  1  0.24102000  0.29846000  0.04569000  1.0
  C  C184  1  0.26210000  0.26029000  0.02832000  1.0
  C  C185  1  0.27929000  0.27543000  0.00204000  1.0
  C  C186  1  0.27728000  0.32984000  0.99383000  1.0
  C  C187  1  0.25744000  0.36808000  0.01129000  1.0
  C  C188  1  0.80695000  0.72223000  0.79417000  1.0
  C  C189  1  0.67403000  0.77907000  0.68387000  1.0
  C  C190  1  0.71005000  0.76250000  0.70379000  1.0
  C  C191  1  0.70156000  0.77405000  0.73137000  1.0
  C  C192  1  0.65610000  0.80204000  0.73858000  1.0
  C  C193  1  0.62096000  0.81925000  0.71890000  1.0
  C  C194  1  0.62983000  0.80810000  0.69177000  1.0
  C  C195  1  0.78235000  0.77130000  0.79714000  1.0
  C  C196  1  0.74933000  0.78860000  0.77615000  1.0
  C  C197  1  0.73921000  0.75665000  0.75275000  1.0
  C  C198  1  0.76404000  0.70743000  0.75043000  1.0
  C  C199  1  0.79791000  0.69070000  0.77091000  1.0
  C  C200  1  0.26672000  0.19762000  0.53833000  1.0
  C  C201  1  0.21407000  0.35101000  0.43724000  1.0
  C  C202  1  0.22944000  0.31317000  0.45653000  1.0
  C  C203  1  0.21006000  0.31439000  0.48324000  1.0
  C  C204  1  0.17482000  0.35374000  0.49063000  1.0
  C  C205  1  0.15844000  0.39069000  0.47147000  1.0
  C  C206  1  0.17781000  0.38943000  0.44495000  1.0
  C  C207  1  0.27198000  0.25306000  0.54535000  1.0
  C  C208  1  0.25093000  0.29133000  0.52795000  1.0
  C  C209  1  0.22691000  0.27430000  0.50319000  1.0
  C  C210  1  0.22181000  0.21861000  0.49670000  1.0
  C  C211  1  0.24113000  0.18053000  0.51433000  1.0
  C  C212  1  0.74678000  0.81096000  0.30732000  1.0
  C  C213  1  0.77760000  0.73017000  0.18245000  1.0
  C  C214  1  0.77618000  0.75791000  0.20720000  1.0
  C  C215  1  0.75188000  0.73186000  0.23009000  1.0
  C  C216  1  0.72726000  0.67851000  0.22741000  1.0
  C  C217  1  0.72828000  0.65123000  0.20275000  1.0
  C  C218  1  0.75394000  0.67658000  0.18046000  1.0
  C  C219  1  0.75616000  0.75556000  0.30615000  1.0
  C  C220  1  0.75984000  0.73041000  0.28080000  1.0
  C  C221  1  0.75244000  0.75971000  0.25677000  1.0
  C  C222  1  0.74370000  0.81529000  0.25849000  1.0
  C  C223  1  0.74123000  0.84067000  0.28362000  1.0
  C  C224  1  0.23926000  0.31874000  0.79345000  1.0
  C  C225  1  0.37492000  0.26470000  0.68351000  1.0
  C  C226  1  0.33771000  0.27997000  0.70318000  1.0
  C  C227  1  0.34783000  0.27198000  0.73096000  1.0
  C  C228  1  0.39617000  0.24930000  0.73861000  1.0
  C  C229  1  0.43266000  0.23364000  0.71921000  1.0
  C  C230  1  0.42215000  0.24098000  0.69190000  1.0
  C  C231  1  0.26759000  0.27204000  0.79690000  1.0
  C  C232  1  0.30155000  0.25625000  0.77596000  1.0
  C  C233  1  0.30884000  0.28739000  0.75213000  1.0
  C  C234  1  0.28009000  0.33406000  0.74924000  1.0
  C  C235  1  0.24537000  0.34930000  0.76971000  1.0
  C  C236  1  0.78405000  0.83247000  0.54058000  1.0
  C  C237  1  0.83135000  0.67646000  0.44018000  1.0
  C  C238  1  0.81753000  0.71484000  0.45949000  1.0
  C  C239  1  0.83798000  0.71360000  0.48598000  1.0
  C  C240  1  0.87264000  0.67358000  0.49314000  1.0
  C  C241  1  0.88750000  0.63602000  0.47390000  1.0
  C  C242  1  0.86712000  0.63738000  0.44756000  1.0
  C  C243  1  0.77674000  0.77707000  0.54754000  1.0
  C  C244  1  0.79718000  0.73804000  0.53041000  1.0
  C  C245  1  0.82262000  0.75434000  0.50590000  1.0
  C  C246  1  0.82984000  0.80996000  0.49942000  1.0
  C  C247  1  0.81115000  0.84878000  0.51684000  1.0
  C  C248  1  0.12702000  0.33037000  0.19178000  1.0
  C  C249  1  0.26238000  0.27783000  0.30130000  1.0
  C  C250  1  0.23526000  0.29964000  0.27928000  1.0
  C  C251  1  0.22317000  0.26849000  0.25574000  1.0
  C  C252  1  0.24001000  0.21533000  0.25446000  1.0
  C  C253  1  0.26820000  0.19406000  0.27593000  1.0
  C  C254  1  0.27926000  0.22490000  0.29922000  1.0
  C  C255  1  0.16611000  0.29390000  0.18525000  1.0
  C  C256  1  0.19873000  0.27489000  0.20604000  1.0
  C  C257  1  0.19103000  0.29053000  0.23322000  1.0
  C  C258  1  0.15071000  0.32622000  0.23898000  1.0
  C  C259  1  0.11960000  0.34637000  0.21838000  1.0
  C  C260  1  0.83279000  0.69453000  0.03727000  1.0
  C  C261  1  0.76299000  0.84977000  0.93814000  1.0
  C  C262  1  0.78537000  0.81346000  0.95616000  1.0
  C  C263  1  0.76797000  0.80978000  0.98331000  1.0
  C  C264  1  0.72841000  0.84367000  0.99226000  1.0
  C  C265  1  0.70663000  0.88020000  0.97457000  1.0
  C  C266  1  0.72356000  0.88320000  0.94769000  1.0
  C  C267  1  0.82227000  0.74617000  0.04708000  1.0
  C  C268  1  0.80085000  0.78368000  0.02939000  1.0
  C  C269  1  0.79017000  0.76998000  0.00212000  1.0
  C  C270  1  0.80053000  0.71779000  0.99295000  1.0
  C  C271  1  0.82170000  0.68049000  0.01043000  1.0
  C  C272  1  0.88547000  0.04032000  0.83701000  1.0
  C  C273  1  0.15264000  0.05477000  0.84505000  1.0
  C  C274  1  0.09627000  0.06123000  0.84631000  1.0
  C  C275  1  0.05749000  0.01861000  0.83871000  1.0
  C  C276  1  0.07615000  0.96889000  0.83024000  1.0
  C  C277  1  0.13182000  0.96201000  0.82934000  1.0
  C  C278  1  0.16989000  0.00461000  0.83657000  1.0
  C  C279  1  0.90284000  0.98983000  0.84490000  1.0
  C  C280  1  0.95922000  0.98342000  0.84598000  1.0
  C  C281  1  0.99793000  0.02640000  0.83880000  1.0
  C  C282  1  0.97918000  0.07646000  0.83091000  1.0
  C  C283  1  0.92348000  0.08328000  0.83017000  1.0
  C  C284  1  0.64981000  0.96879000  0.57218000  1.0
  C  C285  1  0.42907000  0.09536000  0.58973000  1.0
  C  C286  1  0.48155000  0.07774000  0.58669000  1.0
  C  C287  1  0.48878000  0.02252000  0.58092000  1.0
  C  C288  1  0.44233000  0.98568000  0.57808000  1.0
  C  C289  1  0.39033000  0.00301000  0.58146000  1.0
  C  C290  1  0.38363000  0.05735000  0.58734000  1.0
  C  C291  1  0.60803000  0.93270000  0.58266000  1.0
  C  C292  1  0.55545000  0.95013000  0.58549000  1.0
  C  C293  1  0.54433000  0.00336000  0.57768000  1.0
  C  C294  1  0.58681000  0.03816000  0.56662000  1.0
  C  C295  1  0.63909000  0.02099000  0.56406000  1.0
  C  C296  1  0.66124000  0.49293000  0.38850000  1.0
  C  C297  1  0.39636000  0.48429000  0.37719000  1.0
  C  C298  1  0.45215000  0.47641000  0.37824000  1.0
  C  C299  1  0.49072000  0.51922000  0.38563000  1.0
  C  C300  1  0.47232000  0.57047000  0.39173000  1.0
  C  C301  1  0.41712000  0.57884000  0.38998000  1.0
  C  C302  1  0.37928000  0.53615000  0.38274000  1.0
  C  C303  1  0.64520000  0.54446000  0.38152000  1.0
  C  C304  1  0.58956000  0.55274000  0.38051000  1.0
  C  C305  1  0.54979000  0.51036000  0.38699000  1.0
  C  C306  1  0.56702000  0.45943000  0.39467000  1.0
  C  C307  1  0.62227000  0.45082000  0.39515000  1.0
  C  C308  1  0.95461000  0.36553000  0.09501000  1.0
  C  C309  1  0.98336000  0.61862000  0.13577000  1.0
  C  C310  1  0.97087000  0.56878000  0.12264000  1.0
  C  C311  1  0.99789000  0.52284000  0.12959000  1.0
  C  C312  1  0.03863000  0.52779000  0.14962000  1.0
  C  C313  1  0.05196000  0.57770000  0.16229000  1.0
  C  C314  1  0.02436000  0.62298000  0.15551000  1.0
  C  C315  1  0.00934000  0.38227000  0.10034000  1.0
  C  C316  1  0.02329000  0.43470000  0.11036000  1.0
  C  C317  1  0.98288000  0.46969000  0.11640000  1.0
  C  C318  1  0.92812000  0.45254000  0.11077000  1.0
  C  C319  1  0.91429000  0.40095000  0.09987000  1.0
  C  C320  1  0.48979000  0.15975000  0.84970000  1.0
  C  C321  1  0.60595000  0.92832000  0.85000000  1.0
  C  C322  1  0.59051000  0.98156000  0.84625000  1.0
  C  C323  1  0.53587000  0.99401000  0.85050000  1.0
  C  C324  1  0.49719000  0.95096000  0.85767000  1.0
  C  C325  1  0.51198000  0.89779000  0.86000000  1.0
  C  C326  1  0.56587000  0.88648000  0.85632000  1.0
  C  C327  1  0.44931000  0.11674000  0.84656000  1.0
  C  C328  1  0.46465000  0.06301000  0.84529000  1.0
  C  C329  1  0.51973000  0.05157000  0.84903000  1.0
  C  C330  1  0.55894000  0.09596000  0.85291000  1.0
  C  C331  1  0.54411000  0.14934000  0.85269000  1.0
  C  C332  1  0.50914000  0.65782000  0.57454000  1.0
  C  C333  1  0.49052000  0.39114000  0.58423000  1.0
  C  C334  1  0.48484000  0.44771000  0.58457000  1.0
  C  C335  1  0.52823000  0.48548000  0.57689000  1.0
  C  C336  1  0.57782000  0.46576000  0.56904000  1.0
  C  C337  1  0.58379000  0.40988000  0.56876000  1.0
  C  C338  1  0.54053000  0.37274000  0.57622000  1.0
  C  C339  1  0.55827000  0.63975000  0.58404000  1.0
  C  C340  1  0.56399000  0.58320000  0.58504000  1.0
  C  C341  1  0.52150000  0.54517000  0.57653000  1.0
  C  C342  1  0.47279000  0.56458000  0.56718000  1.0
  C  C343  1  0.46677000  0.62041000  0.56626000  1.0
  C  C344  1  0.87981000  0.48287000  0.31908000  1.0
  C  C345  1  0.14420000  0.50546000  0.33215000  1.0
  C  C346  1  0.08783000  0.49120000  0.33201000  1.0
  C  C347  1  0.05144000  0.52841000  0.32293000  1.0
  C  C348  1  0.07210000  0.58041000  0.31434000  1.0
  C  C349  1  0.12810000  0.59468000  0.31446000  1.0
  C  C350  1  0.16406000  0.55742000  0.32319000  1.0
  C  C351  1  0.89835000  0.53359000  0.33007000  1.0
  C  C352  1  0.95461000  0.54834000  0.33135000  1.0
  C  C353  1  0.99214000  0.51264000  0.32190000  1.0
  C  C354  1  0.97271000  0.46193000  0.31114000  1.0
  C  C355  1  0.91687000  0.44732000  0.30971000  1.0
  C  C356  1  0.02989000  0.12901000  0.06793000  1.0
  C  C357  1  0.99316000  0.88413000  0.11707000  1.0
  C  C358  1  0.99141000  0.93738000  0.10729000  1.0
  C  C359  1  0.03969000  0.96996000  0.10184000  1.0
  C  C360  1  0.09006000  0.94929000  0.10734000  1.0
  C  C361  1  0.09199000  0.89673000  0.11762000  1.0
  C  C362  1  0.04390000  0.86404000  0.12224000  1.0
  C  C363  1  0.06929000  0.12103000  0.08778000  1.0
  C  C364  1  0.07279000  0.06879000  0.09861000  1.0
  C  C365  1  0.03717000  0.02481000  0.08984000  1.0
  C  C366  1  0.99861000  0.03359000  0.06967000  1.0
  C  C367  1  0.99504000  0.08541000  0.05887000  1.0
  O  O368  1  0.17597000  0.14624000  0.86109000  1.0
  O  O369  1  0.24579000  0.09667000  0.84791000  1.0
  O  O370  1  0.34999000  0.09152000  0.84624000  1.0
  O  O371  1  0.37691000  0.17762000  0.85144000  1.0
  O  O372  1  0.24064000  0.22061000  0.90094000  1.0
  O  O373  1  0.30418000  0.16161000  0.89180000  1.0
  O  O374  1  0.22989000  0.25356000  0.84148000  1.0
  O  O375  1  0.29121000  0.19747000  0.82552000  1.0
  O  O376  1  0.64715000  0.66071000  0.60346000  1.0
  O  O377  1  0.59893000  0.73232000  0.58986000  1.0
  O  O378  1  0.58484000  0.83470000  0.59079000  1.0
  O  O379  1  0.66963000  0.86607000  0.59680000  1.0
  O  O380  1  0.75676000  0.72302000  0.58770000  1.0
  O  O381  1  0.69844000  0.78588000  0.57496000  1.0
  O  O382  1  0.71293000  0.72799000  0.64782000  1.0
  O  O383  1  0.65142000  0.78918000  0.63701000  1.0
  O  O384  1  0.37018000  0.38816000  0.37413000  1.0
  O  O385  1  0.30545000  0.44796000  0.36610000  1.0
  O  O386  1  0.23483000  0.47415000  0.33840000  1.0
  O  O387  1  0.16712000  0.42134000  0.35431000  1.0
  O  O388  1  0.27836000  0.32180000  0.40471000  1.0
  O  O389  1  0.22334000  0.38809000  0.39201000  1.0
  O  O390  1  0.30453000  0.29196000  0.34492000  1.0
  O  O391  1  0.24792000  0.35483000  0.33013000  1.0
  O  O392  1  0.89569000  0.87027000  0.12188000  1.0
  O  O393  1  0.94521000  0.79564000  0.11938000  1.0
  O  O394  1  0.95701000  0.71054000  0.14318000  1.0
  O  O395  1  0.91342000  0.66335000  0.11151000  1.0
  O  O396  1  0.81256000  0.80148000  0.08691000  1.0
  O  O397  1  0.87151000  0.73387000  0.08819000  1.0
  O  O398  1  0.79910000  0.80281000  0.15051000  1.0
  O  O399  1  0.84486000  0.72574000  0.14824000  1.0
  O  O400  1  0.67491000  0.64011000  0.37939000  1.0
  O  O401  1  0.73607000  0.57928000  0.36870000  1.0
  O  O402  1  0.80651000  0.55898000  0.33943000  1.0
  O  O403  1  0.87296000  0.61629000  0.35279000  1.0
  O  O404  1  0.76495000  0.70465000  0.40845000  1.0
  O  O405  1  0.82085000  0.64145000  0.39429000  1.0
  O  O406  1  0.73244000  0.73844000  0.35263000  1.0
  O  O407  1  0.78370000  0.67802000  0.33189000  1.0
  O  O408  1  0.15189000  0.15872000  0.10929000  1.0
  O  O409  1  0.09143000  0.21683000  0.09294000  1.0
  O  O410  1  0.04060000  0.29128000  0.10003000  1.0
  O  O411  1  0.10335000  0.35902000  0.09907000  1.0
  O  O412  1  0.23776000  0.24532000  0.08671000  1.0
  O  O413  1  0.16730000  0.29776000  0.07691000  1.0
  O  O414  1  0.20806000  0.24351000  0.14952000  1.0
  O  O415  1  0.13360000  0.28895000  0.13960000  1.0
  O  O416  1  0.87998000  0.89747000  0.85966000  1.0
  O  O417  1  0.80965000  0.94812000  0.84852000  1.0
  O  O418  1  0.70524000  0.95275000  0.84691000  1.0
  O  O419  1  0.67838000  0.86739000  0.85454000  1.0
  O  O420  1  0.81787000  0.82369000  0.90029000  1.0
  O  O421  1  0.75395000  0.88296000  0.89243000  1.0
  O  O422  1  0.82392000  0.79046000  0.84081000  1.0
  O  O423  1  0.76195000  0.84689000  0.82588000  1.0
  O  O424  1  0.39956000  0.37113000  0.60130000  1.0
  O  O425  1  0.44930000  0.29880000  0.59041000  1.0
  O  O426  1  0.45682000  0.19407000  0.59026000  1.0
  O  O427  1  0.37377000  0.16786000  0.60343000  1.0
  O  O428  1  0.28974000  0.30895000  0.58518000  1.0
  O  O429  1  0.34849000  0.24539000  0.57422000  1.0
  O  O430  1  0.33135000  0.30782000  0.64606000  1.0
  O  O431  1  0.39687000  0.24998000  0.63697000  1.0
