# generated using pymatgen
data_ZnH6(C3O)4
_symmetry_space_group_name_H-M   'P 1'
_cell_length_a   21.62515000
_cell_length_b   21.62515000
_cell_length_c   31.79240000
_cell_angle_alpha   89.99700000
_cell_angle_beta   89.99500000
_cell_angle_gamma   60.00000000
_symmetry_Int_Tables_number   1
_chemical_formula_structural   ZnH6(C3O)4
_chemical_formula_sum   'Zn12 H72 C144 O48'
_cell_volume   12875.74008033
_cell_formula_units_Z   12
loop_
 _symmetry_equiv_pos_site_id
 _symmetry_equiv_pos_as_xyz
  1  'x, y, z'
loop_
 _atom_site_type_symbol
 _atom_site_label
 _atom_site_symmetry_multiplicity
 _atom_site_fract_x
 _atom_site_fract_y
 _atom_site_fract_z
 _atom_site_occupancy
  C  C0  1  0.32074000  0.29488000  0.40645000  1.0
  C  C1  1  0.38818000  0.38738000  0.47697000  1.0
  C  C2  1  0.30586000  0.31648000  0.55285000  1.0
  C  C3  1  0.42900000  0.15556000  0.48987000  1.0
  C  C4  1  0.30388000  0.40154000  0.07100000  1.0
  C  C5  1  0.15690000  0.46896000  0.14794000  1.0
  C  C6  1  0.32168000  0.39258000  0.21790000  1.0
  C  C7  1  0.34688000  0.51252000  0.14263000  1.0
  C  C8  1  0.49398000  0.43840000  0.17858000  1.0
  C  C9  1  0.39894000  0.53736000  0.13707000  1.0
  C  C10  1  0.38642000  0.45614000  0.47153000  1.0
  C  C11  1  0.33740000  0.56738000  0.43255000  1.0
  C  C12  1  0.33854000  0.50402000  0.44174000  1.0
  C  C13  1  0.47824000  0.43004000  0.52593000  1.0
  C  C14  1  0.43180000  0.47452000  0.49407000  1.0
  C  C15  1  0.38266000  0.20322000  0.61645000  1.0
  C  C16  1  0.32848000  0.27206000  0.62856000  1.0
  C  C17  1  0.28984000  0.32664000  0.59836000  1.0
  C  C18  1  0.21592000  0.40590000  0.65415000  1.0
  C  C19  1  0.25372000  0.35336000  0.68413000  1.0
  C  C20  1  0.31006000  0.28580000  0.67205000  1.0
  C  C21  1  0.23340000  0.39266000  0.61170000  1.0
  C  C22  1  0.30194000  0.39588000  0.02468000  1.0
  C  C23  1  0.29666000  0.45116000  0.95738000  1.0
  C  C24  1  0.28944000  0.39856000  0.93656000  1.0
  C  C25  1  0.29010000  0.34180000  0.95890000  1.0
  C  C26  1  0.30336000  0.44966000  0.00085000  1.0
  C  C27  1  0.29378000  0.34210000  0.00391000  1.0
  C  C28  1  0.33860000  0.38154000  0.26324000  1.0
  C  C29  1  0.38314000  0.41494000  0.32411000  1.0
  C  C30  1  0.36538000  0.37446000  0.35016000  1.0
  C  C31  1  0.33390000  0.33616000  0.33361000  1.0
  C  C32  1  0.36946000  0.41894000  0.28118000  1.0
  C  C33  1  0.31218000  0.29740000  0.36016000  1.0
  C  C34  1  0.32062000  0.33948000  0.28937000  1.0
  C  C35  1  0.56468000  0.39974000  0.19170000  1.0
  C  C36  1  0.28698000  0.30332000  0.27290000  1.0
  C  C37  1  0.62114000  0.77692000  0.82405000  1.0
  C  C38  1  0.85688000  0.58904000  0.82958000  1.0
  C  C39  1  0.82954000  0.55668000  0.16274000  1.0
  C  C40  1  0.32692000  0.23916000  0.74686000  1.0
  C  C41  1  0.37852000  0.10386000  0.83347000  1.0
  C  C42  1  0.28666000  0.27602000  0.89168000  1.0
  C  C43  1  0.15464000  0.30174000  0.80707000  1.0
  C  C44  1  0.93414000  0.53746000  0.83476000  1.0
  C  C45  1  0.04106000  0.50210000  0.87623000  1.0
  C  C46  1  0.07680000  0.43750000  0.85476000  1.0
  C  C47  1  0.04346000  0.42210000  0.82148000  1.0
  C  C48  1  0.97070000  0.55166000  0.86631000  1.0
  C  C49  1  0.07960000  0.35666000  0.79880000  1.0
  C  C50  1  0.97428000  0.39366000  0.75566000  1.0
  C  C51  1  0.93854000  0.45832000  0.77710000  1.0
  C  C52  1  0.97112000  0.47300000  0.81114000  1.0
  C  C53  1  0.04366000  0.34290000  0.76672000  1.0
  C  C54  1  0.45320000  0.07984000  0.49968000  1.0
  C  C55  1  0.53114000  0.97644000  0.54225000  1.0
  C  C56  1  0.49666000  0.94070000  0.52805000  1.0
  C  C57  1  0.44132000  0.97222000  0.49808000  1.0
  C  C58  1  0.51010000  0.04496000  0.52808000  1.0
  C  C59  1  0.32884000  0.03874000  0.43982000  1.0
  C  C60  1  0.36380000  0.07424000  0.45362000  1.0
  C  C61  1  0.41884000  0.04308000  0.48385000  1.0
  C  C62  1  0.09052000  0.46666000  0.14103000  1.0
  C  C63  1  0.03086000  0.41912000  0.09829000  1.0
  C  C64  1  0.96580000  0.46618000  0.11683000  1.0
  C  C65  1  0.96166000  0.51236000  0.14948000  1.0
  C  C66  1  0.09268000  0.41876000  0.11047000  1.0
  C  C67  1  0.89604000  0.55872000  0.17006000  1.0
  C  C68  1  0.95578000  0.60666000  0.21246000  1.0
  C  C69  1  0.02076000  0.55996000  0.19366000  1.0
  C  C70  1  0.02486000  0.51334000  0.16137000  1.0
  C  C71  1  0.89402000  0.60648000  0.20066000  1.0
  C  C72  1  0.44350000  0.03674000  0.84519000  1.0
  C  C73  1  0.54422000  0.97750000  0.89288000  1.0
  C  C74  1  0.56624000  0.91248000  0.87292000  1.0
  C  C75  1  0.52902000  0.90816000  0.83765000  1.0
  C  C76  1  0.48406000  0.03916000  0.87889000  1.0
  C  C77  1  0.55226000  0.84282000  0.81579000  1.0
  C  C78  1  0.42780000  0.96664000  0.78926000  1.0
  C  C79  1  0.46580000  0.97102000  0.82410000  1.0
  C  C80  1  0.63708000  0.76072000  0.99580000  1.0
  C  C81  1  0.65038000  0.71490000  0.96203000  1.0
  C  C82  1  0.64256000  0.73648000  0.03684000  1.0
  C  C83  1  0.34670000  0.23058000  0.70202000  1.0
  C  C84  1  0.41818000  0.14974000  0.64629000  1.0
  C  C85  1  0.40020000  0.16308000  0.68864000  1.0
  C  C86  1  0.28426000  0.28626000  0.93819000  1.0
  C  C87  1  0.27796000  0.23844000  0.00644000  1.0
  C  C88  1  0.28580000  0.29076000  0.02687000  1.0
  C  C89  1  0.27796000  0.23564000  0.96286000  1.0
  C  C90  1  0.75708000  0.65728000  0.63381000  1.0
  C  C91  1  0.69274000  0.67826000  0.61319000  1.0
  C  C92  1  0.76432000  0.64124000  0.67647000  1.0
  C  C93  1  0.26618000  0.26550000  0.29928000  1.0
  C  C94  1  0.27802000  0.26304000  0.34247000  1.0
  C  C95  1  0.70706000  0.64600000  0.69954000  1.0
  C  C96  1  0.71602000  0.63516000  0.74554000  1.0
  C  C97  1  0.69480000  0.61098000  0.89011000  1.0
  C  C98  1  0.66798000  0.64346000  0.09014000  1.0
  C  C99  1  0.67500000  0.61294000  0.23609000  1.0
  C  C100  1  0.54164000  0.70332000  0.42107000  1.0
  C  C101  1  0.55332000  0.71238000  0.56799000  1.0
  C  C102  1  0.43184000  0.85958000  0.49158000  1.0
  C  C103  1  0.40680000  0.93558000  0.48242000  1.0
  C  C104  1  0.34952000  0.97052000  0.45431000  1.0
  C  C105  1  0.44950000  0.90180000  0.76935000  1.0
  C  C106  1  0.51068000  0.84058000  0.78254000  1.0
  C  C107  1  0.65940000  0.66600000  0.04523000  1.0
  C  C108  1  0.66932000  0.64302000  0.96858000  1.0
  C  C109  1  0.68504000  0.59464000  0.93430000  1.0
  C  C110  1  0.67722000  0.55140000  0.01684000  1.0
  C  C111  1  0.66966000  0.61946000  0.01074000  1.0
  C  C112  1  0.69414000  0.52674000  0.94239000  1.0
  C  C113  1  0.67048000  0.61208000  0.28265000  1.0
  C  C114  1  0.73224000  0.55636000  0.34765000  1.0
  C  C115  1  0.67144000  0.60062000  0.37087000  1.0
  C  C116  1  0.60862000  0.65320000  0.35100000  1.0
  C  C117  1  0.73210000  0.56238000  0.30420000  1.0
  C  C118  1  0.54598000  0.70006000  0.37433000  1.0
  C  C119  1  0.48132000  0.74760000  0.30878000  1.0
  C  C120  1  0.54210000  0.70320000  0.28574000  1.0
  C  C121  1  0.60728000  0.65702000  0.30598000  1.0
  C  C122  1  0.48328000  0.74678000  0.35237000  1.0
  C  C123  1  0.56664000  0.70340000  0.61446000  1.0
  C  C124  1  0.51560000  0.70082000  0.68243000  1.0
  C  C125  1  0.58062000  0.67798000  0.70204000  1.0
  C  C126  1  0.64074000  0.66772000  0.67902000  1.0
  C  C127  1  0.50868000  0.71290000  0.63945000  1.0
  C  C128  1  0.63354000  0.68258000  0.63475000  1.0
  C  C129  1  0.47032000  0.49896000  0.15248000  1.0
  C  C130  1  0.37718000  0.59956000  0.11330000  1.0
  C  C131  1  0.64108000  0.51158000  0.15392000  1.0
  C  C132  1  0.47284000  0.62738000  0.50188000  1.0
  C  C133  1  0.59048000  0.48472000  0.15764000  1.0
  C  C134  1  0.61266000  0.42214000  0.18108000  1.0
  C  C135  1  0.42528000  0.62196000  0.10284000  1.0
  C  C136  1  0.49578000  0.58364000  0.11639000  1.0
  C  C137  1  0.51922000  0.52292000  0.14222000  1.0
  C  C138  1  0.38288000  0.58516000  0.45344000  1.0
  C  C139  1  0.42950000  0.54032000  0.48508000  1.0
  C  C140  1  0.47490000  0.55868000  0.50750000  1.0
  C  C141  1  0.52384000  0.44784000  0.54668000  1.0
  C  C142  1  0.52278000  0.51112000  0.53732000  1.0
  C  C143  1  0.68914000  0.50602000  0.98302000  1.0
  H  H144  1  0.06774000  0.51326000  0.90143000  1.0
  H  H145  1  0.53690000  0.07190000  0.54073000  1.0
  H  H146  1  0.45854000  0.42050000  0.18993000  1.0
  H  H147  1  0.32318000  0.62968000  0.10125000  1.0
  H  H148  1  0.30150000  0.60270000  0.40863000  1.0
  H  H149  1  0.47958000  0.38158000  0.53573000  1.0
  H  H150  1  0.30312000  0.49136000  0.42443000  1.0
  H  H151  1  0.06746000  0.56046000  0.20525000  1.0
  H  H152  1  0.17246000  0.45738000  0.66390000  1.0
  H  H153  1  0.39726000  0.18910000  0.58391000  1.0
  H  H154  1  0.23768000  0.36596000  0.71669000  1.0
  H  H155  1  0.20310000  0.43468000  0.58912000  1.0
  H  H156  1  0.29620000  0.49412000  0.93963000  1.0
  H  H157  1  0.28084000  0.40528000  0.90313000  1.0
  H  H158  1  0.30868000  0.49164000  0.01606000  1.0
  H  H159  1  0.40682000  0.44436000  0.33746000  1.0
  H  H160  1  0.37560000  0.37482000  0.38335000  1.0
  H  H161  1  0.38284000  0.45182000  0.26179000  1.0
  H  H162  1  0.58200000  0.35292000  0.21125000  1.0
  H  H163  1  0.13040000  0.40004000  0.86496000  1.0
  H  H164  1  0.88578000  0.49662000  0.76606000  1.0
  H  H165  1  0.94384000  0.60040000  0.88460000  1.0
  H  H166  1  0.07024000  0.29334000  0.74917000  1.0
  H  H167  1  0.57380000  0.95126000  0.56507000  1.0
  H  H168  1  0.51342000  0.88870000  0.54140000  1.0
  H  H169  1  0.34762000  0.12560000  0.43963000  1.0
  H  H170  1  0.03316000  0.38356000  0.07360000  1.0
  H  H171  1  0.95348000  0.64248000  0.23698000  1.0
  H  H172  1  0.91920000  0.46630000  0.10457000  1.0
  H  H173  1  0.14208000  0.38278000  0.09445000  1.0
  H  H174  1  0.84468000  0.64228000  0.21680000  1.0
  H  H175  1  0.57376000  0.98000000  0.91969000  1.0
  H  H176  1  0.61200000  0.86596000  0.88592000  1.0
  H  H177  1  0.38134000  0.01296000  0.77665000  1.0
  H  H178  1  0.46794000  0.08888000  0.89532000  1.0
  H  H179  1  0.62278000  0.81566000  0.99007000  1.0
  H  H180  1  0.64292000  0.73780000  0.93101000  1.0
  H  H181  1  0.63396000  0.77330000  0.06226000  1.0
  H  H182  1  0.45930000  0.09714000  0.63639000  1.0
  H  H183  1  0.42784000  0.12014000  0.71112000  1.0
  H  H184  1  0.27220000  0.19928000  0.02462000  1.0
  H  H185  1  0.28398000  0.29082000  0.06080000  1.0
  H  H186  1  0.27350000  0.19262000  0.94847000  1.0
  H  H187  1  0.80158000  0.65462000  0.61662000  1.0
  H  H188  1  0.69054000  0.69334000  0.58078000  1.0
  H  H189  1  0.81474000  0.62608000  0.69175000  1.0
  H  H190  1  0.23996000  0.23838000  0.28616000  1.0
  H  H191  1  0.27548000  0.30472000  0.23967000  1.0
  H  H192  1  0.26062000  0.23376000  0.36223000  1.0
  H  H193  1  0.94812000  0.38304000  0.72993000  1.0
  H  H194  1  0.28624000  0.06382000  0.41695000  1.0
  H  H195  1  0.32252000  0.94362000  0.44190000  1.0
  H  H196  1  0.41942000  0.89920000  0.74286000  1.0
  H  H197  1  0.52700000  0.79156000  0.76541000  1.0
  H  H198  1  0.67156000  0.53292000  0.04734000  1.0
  H  H199  1  0.77996000  0.51664000  0.36354000  1.0
  H  H200  1  0.43196000  0.78308000  0.29264000  1.0
  H  H201  1  0.67462000  0.59090000  0.40423000  1.0
  H  H202  1  0.53596000  0.70478000  0.25205000  1.0
  H  H203  1  0.78080000  0.52734000  0.28727000  1.0
  H  H204  1  0.43480000  0.78326000  0.36900000  1.0
  H  H205  1  0.58220000  0.66990000  0.73560000  1.0
  H  H206  1  0.70564000  0.48894000  0.91709000  1.0
  H  H207  1  0.40804000  0.66884000  0.08335000  1.0
  H  H208  1  0.53150000  0.60178000  0.10576000  1.0
  H  H209  1  0.66665333  0.39220667  0.19317000  1.0
  H  H210  1  0.55966000  0.41268000  0.57070000  1.0
  H  H211  1  0.38124000  0.63400000  0.44412000  1.0
  H  H212  1  0.55798000  0.52416000  0.55460000  1.0
  H  H213  1  0.69500000  0.45392000  0.98840000  1.0
  H  H214  1  0.47000000  0.70870000  0.70075000  1.0
  H  H215  1  0.45690000  0.72906000  0.62579000  1.0
  O  O216  1  0.37206000  0.29154000  0.53896000  1.0
  O  O217  1  0.25482000  0.33258000  0.52551000  1.0
  O  O218  1  0.38394000  0.27426000  0.42378000  1.0
  O  O219  1  0.26552000  0.31480000  0.43103000  1.0
  O  O220  1  0.44870000  0.32740000  0.47997000  1.0
  O  O221  1  0.32794000  0.38522000  0.47587000  1.0
  O  O222  1  0.47496000  0.17794000  0.48784000  1.0
  O  O223  1  0.31638000  0.30110000  0.86621000  1.0
  O  O224  1  0.34044000  0.27918000  0.77169000  1.0
  O  O225  1  0.27906000  0.45812000  0.20366000  1.0
  O  O226  1  0.35242000  0.34014000  0.19091000  1.0
  O  O227  1  0.26502000  0.46486000  0.08900000  1.0
  O  O228  1  0.34294000  0.34596000  0.09486000  1.0
  O  O229  1  0.15592000  0.52982000  0.15025000  1.0
  O  O230  1  0.21940000  0.40918000  0.14544000  1.0
  O  O231  1  0.27860000  0.55842000  0.14589000  1.0
  O  O232  1  0.36792000  0.44344000  0.14091000  1.0
  O  O233  1  0.72004000  0.65430000  0.88147000  1.0
  O  O234  1  0.73562000  0.67414000  0.76803000  1.0
  O  O235  1  0.67938000  0.77922000  0.83181000  1.0
  O  O236  1  0.83198000  0.65746000  0.83479000  1.0
  O  O237  1  0.81082000  0.56642000  0.82305000  1.0
  O  O238  1  0.35996000  0.20334000  0.48743000  1.0
  O  O239  1  0.76670000  0.61604000  0.16590000  1.0
  O  O240  1  0.26382000  0.23440000  0.87548000  1.0
  O  O241  1  0.29708000  0.20370000  0.76277000  1.0
  O  O242  1  0.31718000  0.10648000  0.82868000  1.0
  O  O243  1  0.38096000  0.16376000  0.83027000  1.0
  O  O244  1  0.17278000  0.23446000  0.81027000  1.0
  O  O245  1  0.20520000  0.31928000  0.80967000  1.0
  O  O246  1  0.68304000  0.57910000  0.85871000  1.0
  O  O247  1  0.69890000  0.59262000  0.76512000  1.0
  O  O248  1  0.62658000  0.71376000  0.81764000  1.0
  O  O249  1  0.71688000  0.55258000  0.21572000  1.0
  O  O250  1  0.64054000  0.67190000  0.21428000  1.0
  O  O251  1  0.71318000  0.57668000  0.10149000  1.0
  O  O252  1  0.63454000  0.69048000  0.11980000  1.0
  O  O253  1  0.83088000  0.49616000  0.15724000  1.0
  O  O254  1  0.48764000  0.73558000  0.55364000  1.0
  O  O255  1  0.60440000  0.69208000  0.54025000  1.0
  O  O256  1  0.47866000  0.72732000  0.43949000  1.0
  O  O257  1  0.59682000  0.68782000  0.44491000  1.0
  O  O258  1  0.38604000  0.83728000  0.49556000  1.0
  O  O259  1  0.50098000  0.81156000  0.49067000  1.0
  O  O260  1  0.70958000  0.46710000  0.15031000  1.0
  O  O261  1  0.61884000  0.58028000  0.15989000  1.0
  O  O262  1  0.41226000  0.68766000  0.50254000  1.0
  O  O263  1  0.53322000  0.62898000  0.49889000  1.0
  Zn  Zn264  1  0.41368000  0.26968000  0.48234000  1.0
  Zn  Zn265  1  0.30808000  0.30668000  0.47980000  1.0
  Zn  Zn266  1  0.24856000  0.49646000  0.14743000  1.0
  Zn  Zn267  1  0.31706000  0.39034000  0.14393000  1.0
  Zn  Zn268  1  0.74044000  0.68668000  0.82860000  1.0
  Zn  Zn269  1  0.26484000  0.19880000  0.81906000  1.0
  Zn  Zn270  1  0.30802000  0.26256000  0.81910000  1.0
  Zn  Zn271  1  0.70732000  0.61646000  0.81705000  1.0
  Zn  Zn272  1  0.73850000  0.52948000  0.15619000  1.0
  Zn  Zn273  1  0.66910000  0.63392000  0.16396000  1.0
  Zn  Zn274  1  0.55296000  0.70752000  0.49411000  1.0
  Zn  Zn275  1  0.44732000  0.74516000  0.49775000  1.0
