# generated using pymatgen
data_CdH28(C13N2)2
_symmetry_space_group_name_H-M   'P 1'
_cell_length_a   22.62315000
_cell_length_b   22.62315000
_cell_length_c   36.87140000
_cell_angle_alpha   90.00000000
_cell_angle_beta   90.00000000
_cell_angle_gamma   120.00000000
_symmetry_Int_Tables_number   1
_chemical_formula_structural   CdH28(C13N2)2
_chemical_formula_sum   'Cd6 H168 C156 N24'
_cell_volume   16342.79788787
_cell_formula_units_Z   6
loop_
 _symmetry_equiv_pos_site_id
 _symmetry_equiv_pos_as_xyz
  1  'x, y, z'
loop_
 _atom_site_type_symbol
 _atom_site_label
 _atom_site_symmetry_multiplicity
 _atom_site_fract_x
 _atom_site_fract_y
 _atom_site_fract_z
 _atom_site_occupancy
  C  C0  1  0.59026000  0.97852000  0.93387000  1.0
  C  C1  1  0.57716000  0.07108000  0.95369000  1.0
  C  C2  1  0.51958000  0.93602000  0.93202000  1.0
  C  C3  1  0.50600000  0.03030000  0.95216000  1.0
  C  C4  1  0.47666000  0.96186000  0.94131000  1.0
  C  C5  1  0.73950000  0.22872000  0.98316000  1.0
  C  C6  1  0.79354000  0.25208000  0.92561000  1.0
  C  C7  1  0.81848000  0.32200000  0.93013000  1.0
  C  C8  1  0.80388000  0.34550000  0.96224000  1.0
  C  C9  1  0.73426000  0.00698000  0.99812000  1.0
  C  C10  1  0.80752000  0.12340000  0.01327000  1.0
  C  C11  1  0.75736000  0.98628000  0.02802000  1.0
  C  C12  1  0.83178000  0.10493000  0.04356000  1.0
  C  C13  1  0.80672000  0.03564000  0.05110000  1.0
  C  C14  1  0.72660000  0.06920000  0.86853000  1.0
  C  C15  1  0.82894000  0.09786000  0.90003000  1.0
  C  C16  1  0.75182000  0.05542000  0.83697000  1.0
  C  C17  1  0.85630000  0.08494000  0.86904000  1.0
  C  C18  1  0.81716000  0.06266000  0.83718000  1.0
  C  C19  1  0.94794000  0.32984000  0.57576000  1.0
  C  C20  1  0.03948000  0.40366000  0.61418000  1.0
  C  C21  1  0.03108000  0.45876000  0.60457000  1.0
  C  C22  1  0.15326000  0.26804000  0.62599500  1.0
  C  C23  1  0.17312000  0.37038000  0.59745000  1.0
  C  C24  1  0.22330000  0.29384000  0.62989000  1.0
  C  C25  1  0.24368000  0.39840000  0.60098000  1.0
  C  C26  1  0.26928000  0.35992000  0.61747000  1.0
  C  C27  1  0.01216000  0.22156000  0.68362000  1.0
  C  C28  1  0.91184000  0.15304000  0.64942000  1.0
  C  C29  1  0.98418000  0.17906000  0.71378000  1.0
  C  C30  1  0.88178000  0.10938000  0.67897000  1.0
  C  C31  1  0.91870000  0.12150000  0.71138000  1.0
  C  C32  1  0.99494000  0.22961000  0.52711000  1.0
  C  C33  1  0.97498000  0.13488000  0.56348000  1.0
  C  C34  1  0.97400000  0.18880000  0.49607000  1.0
  C  C35  1  0.95448000  0.09236000  0.53306000  1.0
  C  C36  1  0.95356000  0.11930000  0.49889000  1.0
  C  C37  1  0.30706000  0.22660000  0.25667000  1.0
  C  C38  1  0.22064000  0.25340000  0.27038000  1.0
  C  C39  1  0.34824000  0.29139000  0.24186000  1.0
  C  C40  1  0.26006000  0.31872000  0.25577000  1.0
  C  C41  1  0.32372000  0.33734000  0.24030000  1.0
  C  C42  1  0.20508000  0.99085000  0.28361500  1.0
  C  C43  1  0.28422000  0.08822000  0.31707500  1.0
  C  C44  1  0.23432000  0.95342000  0.29675000  1.0
  C  C45  1  0.31502000  0.05274000  0.33085000  1.0
  C  C46  1  0.28888000  0.98406000  0.32133000  1.0
  C  C47  1  0.11842000  0.06868000  0.35522000  1.0
  C  C48  1  0.05848000  0.10594000  0.31746000  1.0
  C  C49  1  0.07118000  0.05334000  0.38310000  1.0
  C  C50  1  0.01016000  0.09162000  0.34470000  1.0
  C  C51  1  0.01592000  0.06420000  0.37780000  1.0
  C  C52  1  0.05860000  0.00578000  0.23576000  1.0
  C  C53  1  0.14284000  0.10030000  0.20249000  1.0
  C  C54  1  0.01724000  0.98114000  0.20498000  1.0
  C  C55  1  0.10304000  0.07778000  0.17116000  1.0
  C  C56  1  0.03914000  0.01794000  0.17236000  1.0
  C  C57  1  0.16326000  0.88712000  0.91605000  1.0
  C  C58  1  0.13976000  0.77960000  0.93902000  1.0
  C  C59  1  0.22688000  0.90034000  0.90331000  1.0
  C  C60  1  0.20338000  0.79110000  0.92719000  1.0
  C  C61  1  0.24710000  0.85144000  0.90831000  1.0
  C  C62  1  0.90100000  0.66842000  0.92471000  1.0
  C  C63  1  0.95730000  0.66524000  0.97833000  1.0
  C  C64  1  0.90448000  0.59920000  0.98599000  1.0
  C  C65  1  0.96066000  0.81498000  0.01288000  1.0
  C  C66  1  0.05682000  0.91968000  0.99486000  1.0
  C  C67  1  0.94846000  0.84688000  0.04195000  1.0
  C  C68  1  0.04624000  0.95378000  0.02356000  1.0
  C  C69  1  0.99074000  0.91728000  0.04707000  1.0
  C  C70  1  0.01464000  0.84950000  0.86726000  1.0
  C  C71  1  0.93182000  0.84794000  0.90735000  1.0
  C  C72  1  0.99042000  0.87268000  0.83896000  1.0
  C  C73  1  0.90542000  0.87022000  0.87976000  1.0
  C  C74  1  0.93490000  0.88288000  0.84510000  1.0
  C  C75  1  0.85072000  0.65806000  0.61222000  1.0
  C  C76  1  0.76426000  0.55262000  0.63611000  1.0
  C  C77  1  0.89534000  0.63260000  0.60921000  1.0
  C  C78  1  0.80710000  0.52478000  0.63328000  1.0
  C  C79  1  0.87332000  0.56498000  0.61945000  1.0
  C  C80  1  0.58264000  0.60198000  0.65692000  1.0
  C  C81  1  0.59712000  0.52328000  0.62092500  1.0
  C  C82  1  0.51856000  0.55038000  0.66839000  1.0
  C  C83  1  0.53320000  0.47010000  0.63162000  1.0
  C  C84  1  0.49432000  0.48314000  0.65662000  1.0
  C  C85  1  0.73210000  0.70968000  0.70356000  1.0
  C  C86  1  0.81118000  0.79472000  0.66363000  1.0
  C  C87  1  0.75596000  0.75564000  0.73250000  1.0
  C  C88  1  0.83722000  0.84208000  0.69189000  1.0
  C  C89  1  0.80940000  0.82264000  0.72679000  1.0
  C  C90  1  0.76124000  0.69810000  0.54892000  1.0
  C  C91  1  0.72868000  0.77026000  0.57887000  1.0
  C  C92  1  0.78122000  0.73994000  0.51824000  1.0
  C  C93  1  0.74778000  0.81338000  0.54871500  1.0
  C  C94  1  0.77600000  0.79918000  0.51832000  1.0
  C  C95  1  0.58964000  0.69666000  0.24670000  1.0
  C  C96  1  0.49176000  0.68416000  0.27722000  1.0
  C  C97  1  0.55187000  0.63127000  0.23204000  1.0
  C  C98  1  0.45182000  0.61874000  0.26285000  1.0
  C  C99  1  0.48162000  0.59248000  0.23915000  1.0
  C  C100  1  0.56591000  0.91239000  0.31706000  1.0
  C  C101  1  0.48374000  0.83182000  0.27652000  1.0
  C  C102  1  0.51794000  0.92780000  0.33113000  1.0
  C  C103  1  0.43398000  0.84540000  0.28992000  1.0
  C  C104  1  0.45043000  0.89193000  0.31855000  1.0
  C  C105  1  0.73596000  0.85128000  0.32529500  1.0
  C  C106  1  0.64034000  0.83378000  0.36005500  1.0
  C  C107  1  0.77468000  0.86316000  0.35682000  1.0
  C  C108  1  0.67742000  0.84646000  0.39215000  1.0
  C  C109  1  0.74552000  0.86136000  0.39076000  1.0
  C  C110  1  0.73702000  0.93684000  0.24168000  1.0
  C  C111  1  0.65562000  0.85062000  0.20314000  1.0
  C  C112  1  0.78090000  0.96814000  0.21228000  1.0
  C  C113  1  0.69814000  0.87958000  0.17316000  1.0
  C  C114  1  0.76186000  0.93886000  0.17759000  1.0
  C  C115  1  0.81138000  0.96676000  0.14631000  1.0
  C  C116  1  0.83400000  0.01436000  0.08274000  1.0
  C  C117  1  0.78486000  0.99240000  0.11517000  1.0
  C  C118  1  0.89146000  0.06994000  0.74174000  1.0
  C  C119  1  0.84250000  0.04134000  0.80469000  1.0
  C  C120  1  0.86700000  0.09472000  0.77417500  1.0
  C  C121  1  0.92878000  0.07384000  0.46591000  1.0
  C  C122  1  0.96160000  0.04300000  0.40647000  1.0
  C  C123  1  0.98655000  0.09339000  0.43831000  1.0
  C  C124  1  0.97356000  0.95372000  0.07571000  1.0
  C  C125  1  0.99280000  0.99678000  0.13985000  1.0
  C  C126  1  0.01654000  0.96604000  0.11001000  1.0
  C  C127  1  0.83648000  0.87294000  0.75769000  1.0
  C  C128  1  0.90740000  0.90726000  0.81497000  1.0
  C  C129  1  0.78868000  0.88130000  0.42464000  1.0
  C  C130  1  0.80568000  0.84974000  0.48763000  1.0
  C  C131  1  0.75826000  0.82662000  0.45451500  1.0
  C  C132  1  0.40020000  0.91686000  0.93825000  1.0
  C  C133  1  0.30912000  0.85842000  0.88893000  1.0
  C  C134  1  0.37662000  0.92196000  0.89982000  1.0
  C  C135  1  0.91980000  0.53590000  0.61410000  1.0
  C  C136  1  0.43766000  0.52826000  0.21798000  1.0
  C  C137  1  0.36080000  0.40166000  0.21825000  1.0
  C  C138  1  0.40481000  0.46425000  0.24196000  1.0
  C  C139  1  0.39494000  0.89662000  0.33853000  1.0
  C  C140  1  0.31442000  0.94202000  0.33996000  1.0
  C  C141  1  0.37166000  0.94067000  0.31835000  1.0
  C  C142  1  0.83024000  0.42052000  0.96820000  1.0
  C  C143  1  0.77774000  0.43978000  0.95466000  1.0
  C  C144  1  0.34490000  0.38926000  0.62298000  1.0
  C  C145  1  0.43230000  0.42506000  0.67425000  1.0
  C  C146  1  0.36510000  0.41928000  0.66140500  1.0
  C  C147  1  0.76342000  0.29804000  0.98884000  1.0
  C  C148  1  0.93794000  0.38348000  0.56527000  1.0
  C  C149  1  0.98118000  0.44922000  0.57895000  1.0
  C  C150  1  0.84724000  0.60248000  0.93126000  1.0
  C  C151  1  0.84766000  0.56808000  0.96283000  1.0
  C  C152  1  0.87268000  0.85202000  0.78580000  1.0
  C  C153  1  0.97952000  0.50968000  0.56293000  1.0
  C  C154  1  0.91634000  0.51350000  0.57438000  1.0
  C  C155  1  0.78444000  0.50298000  0.97387000  1.0
  Cd  Cd156  1  0.72388000  0.10418000  0.94668000  1.0
  Cd  Cd157  1  0.02422000  0.26460000  0.60579000  1.0
  Cd  Cd158  1  0.17688000  0.10636000  0.28072000  1.0
  Cd  Cd159  1  0.02050000  0.80360000  0.94324000  1.0
  Cd  Cd160  1  0.72392000  0.66114000  0.62682000  1.0
  Cd  Cd161  1  0.61371000  0.82621000  0.28069500  1.0
  H  H162  1  0.62356000  0.95894000  0.92654000  1.0
  H  H163  1  0.60008000  0.12386000  0.96196000  1.0
  H  H164  1  0.49854000  0.88366000  0.92313000  1.0
  H  H165  1  0.47422000  0.05190000  0.95914000  1.0
  H  H166  1  0.70932000  0.19194000  0.00383000  1.0
  H  H167  1  0.80552000  0.23356000  0.90123000  1.0
  H  H168  1  0.84916000  0.35740000  0.90900500  1.0
  H  H169  1  0.69634000  0.96921000  0.98022000  1.0
  H  H170  1  0.82718000  0.17678000  0.00717000  1.0
  H  H171  1  0.73724000  0.93236000  0.03305000  1.0
  H  H172  1  0.87010000  0.14430000  0.06076000  1.0
  H  H173  1  0.67590000  0.06280000  0.86871000  1.0
  H  H174  1  0.85826000  0.11382000  0.92490000  1.0
  H  H175  1  0.72020000  0.03790000  0.81288000  1.0
  H  H176  1  0.91642000  0.27960000  0.56424000  1.0
  H  H177  1  0.07982000  0.41128000  0.63268000  1.0
  H  H178  1  0.06518000  0.50886000  0.61570000  1.0
  H  H179  1  0.11756000  0.21717000  0.63551000  1.0
  H  H180  1  0.15312000  0.39946000  0.58435000  1.0
  H  H181  1  0.24152000  0.26288000  0.64278000  1.0
  H  H182  1  0.27788000  0.44950000  0.59110000  1.0
  H  H183  1  0.06332000  0.26500000  0.68502000  1.0
  H  H184  1  0.88454000  0.14272000  0.62398000  1.0
  H  H185  1  0.01410000  0.18966000  0.73836000  1.0
  H  H186  1  0.83120000  0.06526000  0.67615000  1.0
  H  H187  1  0.01166000  0.28340000  0.52496000  1.0
  H  H188  1  0.97574000  0.11446000  0.58990000  1.0
  H  H189  1  0.97364000  0.21114000  0.47015000  1.0
  H  H190  1  0.93902000  0.03894000  0.53621000  1.0
  H  H191  1  0.32368000  0.18932000  0.25575000  1.0
  H  H192  1  0.16978000  0.23714000  0.28031000  1.0
  H  H193  1  0.39698000  0.30412000  0.22993000  1.0
  H  H194  1  0.23962000  0.35298000  0.25473000  1.0
  H  H195  1  0.16114000  0.96682000  0.26589500  1.0
  H  H196  1  0.30198000  0.14024000  0.32556000  1.0
  H  H197  1  0.21294000  0.90040000  0.28899000  1.0
  H  H198  1  0.35698000  0.07768000  0.34985000  1.0
  H  H199  1  0.16014000  0.05880000  0.35884000  1.0
  H  H200  1  0.05328000  0.12508000  0.29146000  1.0
  H  H201  1  0.07676000  0.03188000  0.40826000  1.0
  H  H202  1  0.96792000  0.10032000  0.33968000  1.0
  H  H203  1  0.04136000  0.97896000  0.26130000  1.0
  H  H204  1  0.19142000  0.14726000  0.20194000  1.0
  H  H205  1  0.96794000  0.93498000  0.20684000  1.0
  H  H206  1  0.12107000  0.10755000  0.14645000  1.0
  H  H207  1  0.14644000  0.92356000  0.91112000  1.0
  H  H208  1  0.10462000  0.73182000  0.95199000  1.0
  H  H209  1  0.25850000  0.94674000  0.88821000  1.0
  H  H210  1  0.21690000  0.75186000  0.93113000  1.0
  H  H211  1  0.89892000  0.69662000  0.90152000  1.0
  H  H212  1  0.99922000  0.69118000  0.99720000  1.0
  H  H213  1  0.80400000  0.57992000  0.91293000  1.0
  H  H214  1  0.90622000  0.57406000  0.01065500  1.0
  H  H215  1  0.92612000  0.76140000  0.00786000  1.0
  H  H216  1  0.09780000  0.94778000  0.97576000  1.0
  H  H217  1  0.90502000  0.81734000  0.05951000  1.0
  H  H218  1  0.07957000  0.00833000  0.02674000  1.0
  H  H219  1  0.05668000  0.84050000  0.86257000  1.0
  H  H220  1  0.90938000  0.83804000  0.93417000  1.0
  H  H221  1  0.01436000  0.88212000  0.81251000  1.0
  H  H222  1  0.86250000  0.87752000  0.88541000  1.0
  H  H223  1  0.86720000  0.70998000  0.60404000  1.0
  H  H224  1  0.71344000  0.52208000  0.64707000  1.0
  H  H225  1  0.94616000  0.66488000  0.59840000  1.0
  H  H226  1  0.78870000  0.47246000  0.64149000  1.0
  H  H227  1  0.60266000  0.65336000  0.66705000  1.0
  H  H228  1  0.62860000  0.51298000  0.60288000  1.0
  H  H229  1  0.48968000  0.56212000  0.68763000  1.0
  H  H230  1  0.51576000  0.41880000  0.62187000  1.0
  H  H231  1  0.69206000  0.65756000  0.70803000  1.0
  H  H232  1  0.83272000  0.80928000  0.63671000  1.0
  H  H233  1  0.73342000  0.73898000  0.75913000  1.0
  H  H234  1  0.76760000  0.65380000  0.54955000  1.0
  H  H235  1  0.70982000  0.78256000  0.60301500  1.0
  H  H236  1  0.80284000  0.72764000  0.49520000  1.0
  H  H237  1  0.74310000  0.85874000  0.54964000  1.0
  H  H238  1  0.64308000  0.72808000  0.23990000  1.0
  H  H239  1  0.46861000  0.70527000  0.29470000  1.0
  H  H240  1  0.57654000  0.61254000  0.21390000  1.0
  H  H241  1  0.39770000  0.59014000  0.26885000  1.0
  H  H242  1  0.61706000  0.93706000  0.32808000  1.0
  H  H243  1  0.47056000  0.79366000  0.25564000  1.0
  H  H244  1  0.53240000  0.96444000  0.35303000  1.0
  H  H245  1  0.38234000  0.81722000  0.27948000  1.0
  H  H246  1  0.75852000  0.85384000  0.29905000  1.0
  H  H247  1  0.58784000  0.82220000  0.36106000  1.0
  H  H248  1  0.82736000  0.87534000  0.35466000  1.0
  H  H249  1  0.65348000  0.84594000  0.41767000  1.0
  H  H250  1  0.75212000  0.95814000  0.26862000  1.0
  H  H251  1  0.60676000  0.80462000  0.19983000  1.0
  H  H252  1  0.82994000  0.01351000  0.21676000  1.0
  H  H253  1  0.68216000  0.85502000  0.14693000  1.0
  H  H254  1  0.84014000  0.97050000  0.07427000  1.0
  H  H255  1  0.88476000  0.05704000  0.09120000  1.0
  H  H256  1  0.73360000  0.95110000  0.10637000  1.0
  H  H257  1  0.78016000  0.03654000  0.12477000  1.0
  H  H258  1  0.86176000  0.00908000  0.15551000  1.0
  H  H259  1  0.81869000  0.92471000  0.13583000  1.0
  H  H260  1  0.80014000  0.99222000  0.79414000  1.0
  H  H261  1  0.90964000  0.14402000  0.78441000  1.0
  H  H262  1  0.82438000  0.10268000  0.76538000  1.0
  H  H263  1  0.93306000  0.06082000  0.75107000  1.0
  H  H264  1  0.84834000  0.02064000  0.73183000  1.0
  H  H265  1  0.91456000  0.03944000  0.39472000  1.0
  H  H266  1  0.94898000  0.99194000  0.41700000  1.0
  H  H267  1  0.00422000  0.14582000  0.42788000  1.0
  H  H268  1  0.03028000  0.09278000  0.45184000  1.0
  H  H269  1  0.88770000  0.07966000  0.45274000  1.0
  H  H270  1  0.90718000  0.01940000  0.47388000  1.0
  H  H271  1  0.93972000  0.95854000  0.14778000  1.0
  H  H272  1  0.99282000  0.04266000  0.12887000  1.0
  H  H273  1  0.01086000  0.91686000  0.11983000  1.0
  H  H274  1  0.07128000  0.00146000  0.10344000  1.0
  H  H275  1  0.98364000  0.00392000  0.06494000  1.0
  H  H276  1  0.91848000  0.92296000  0.08289000  1.0
  H  H277  1  0.87006000  0.92110000  0.82591000  1.0
  H  H278  1  0.95038000  0.95336000  0.80227000  1.0
  H  H279  1  0.83464000  0.80324000  0.79888000  1.0
  H  H280  1  0.91180000  0.84385000  0.77196000  1.0
  H  H281  1  0.79297000  0.87397000  0.77115000  1.0
  H  H282  1  0.81492000  0.90066000  0.49667000  1.0
  H  H283  1  0.85546000  0.85492000  0.47947000  1.0
  H  H284  1  0.70740000  0.81830000  0.46292000  1.0
  H  H285  1  0.75198000  0.77769000  0.44395000  1.0
  H  H286  1  0.79276000  0.92930000  0.43522000  1.0
  H  H287  1  0.84100000  0.89158000  0.41811000  1.0
  H  H288  1  0.31358000  0.81194000  0.89253000  1.0
  H  H289  1  0.30180000  0.86294000  0.85944000  1.0
  H  H290  1  0.37276000  0.96892000  0.89752000  1.0
  H  H291  1  0.41544000  0.92671000  0.87966000  1.0
  H  H292  1  0.38624000  0.86308000  0.94407000  1.0
  H  H293  1  0.37386000  0.93270000  0.95822000  1.0
  H  H294  1  0.97292000  0.57600000  0.62087000  1.0
  H  H295  1  0.90483000  0.49119000  0.63216000  1.0
  H  H296  1  0.91368000  0.55122000  0.55604000  1.0
  H  H297  1  0.86898000  0.46360000  0.56994000  1.0
  H  H298  1  0.39406000  0.39634000  0.19778000  1.0
  H  H299  1  0.32256000  0.40998000  0.20352000  1.0
  H  H300  1  0.44539000  0.45813000  0.25555000  1.0
  H  H301  1  0.37236000  0.46926000  0.26307000  1.0
  H  H302  1  0.46802000  0.52169000  0.19620000  1.0
  H  H303  1  0.39625000  0.53357000  0.20480000  1.0
  H  H304  1  0.33398000  0.96340000  0.36742000  1.0
  H  H305  1  0.27142000  0.88874000  0.34324000  1.0
  H  H306  1  0.41550000  0.99356000  0.31536000  1.0
  H  H307  1  0.35254000  0.91896000  0.29088000  1.0
  H  H308  1  0.35034000  0.84422000  0.34165000  1.0
  H  H309  1  0.41295000  0.91829000  0.36612000  1.0
  H  H310  1  0.83988000  0.43180000  0.99770000  1.0
  H  H311  1  0.87910000  0.45170000  0.95339000  1.0
  H  H312  1  0.72508000  0.39716000  0.96015000  1.0
  H  H313  1  0.78268000  0.44784000  0.92476000  1.0
  H  H314  1  0.43086000  0.37564000  0.66992000  1.0
  H  H315  1  0.43592000  0.43440000  0.70401000  1.0
  H  H316  1  0.36804000  0.46988000  0.66252000  1.0
  H  H317  1  0.32506000  0.38528000  0.68107000  1.0
  H  H318  1  0.35726000  0.34776000  0.61934000  1.0
  H  H319  1  0.37452000  0.43012000  0.60280000  1.0
  H  H320  1  0.75087000  0.31461000  0.01380000  1.0
  H  H321  1  0.90678000  0.09072000  0.87018000  1.0
  H  H322  1  0.89902000  0.37450000  0.54541000  1.0
  H  H323  1  0.87868000  0.89332000  0.68657000  1.0
  H  H324  1  0.88538000  0.03331000  0.81274000  1.0
  H  H325  1  0.87268000  0.92508000  0.74746000  1.0
  H  H326  1  0.97792000  0.50456000  0.53288000  1.0
  H  H327  1  0.02664000  0.55838000  0.56986000  1.0
  H  H328  1  0.73884000  0.50692000  0.96652000  1.0
  H  H329  1  0.78314000  0.49564000  0.00377000  1.0
  N  N330  1  0.75956000  0.07452000  0.99140000  1.0
  N  N331  1  0.76496000  0.08908000  0.89926000  1.0
  N  N332  1  0.61748000  0.04456000  0.94462000  1.0
  N  N333  1  0.75514000  0.20736000  0.95205000  1.0
  N  N334  1  0.97642000  0.20694000  0.65206000  1.0
  N  N335  1  0.99394000  0.20190000  0.56000000  1.0
  N  N336  1  0.99974000  0.34148000  0.59869000  1.0
  N  N337  1  0.12970000  0.30674000  0.61043000  1.0
  N  N338  1  0.11088000  0.09388000  0.32316000  1.0
  N  N339  1  0.11968000  0.06464000  0.23394000  1.0
  N  N340  1  0.24414000  0.20866000  0.26977500  1.0
  N  N341  1  0.22968000  0.05646000  0.29446500  1.0
  N  N342  1  0.01370000  0.85172000  0.98994000  1.0
  N  N343  1  0.98538000  0.83816000  0.90063000  1.0
  N  N344  1  0.12056000  0.82676000  0.93257000  1.0
  N  N345  1  0.95356000  0.69890000  0.94864000  1.0
  N  N346  1  0.75926000  0.73020000  0.66990000  1.0
  N  N347  1  0.73716000  0.71486000  0.57866000  1.0
  N  N348  1  0.78634000  0.61772000  0.62496000  1.0
  N  N349  1  0.62154000  0.58698000  0.63488000  1.0
  N  N350  1  0.67046000  0.83796000  0.32751000  1.0
  N  N351  1  0.67630000  0.87858000  0.23664000  1.0
  N  N352  1  0.55852000  0.72260000  0.26762000  1.0
  N  N353  1  0.54712000  0.86280000  0.29153500  1.0
