# generated using pymatgen
data_CuH28C36(N2O)4
_symmetry_space_group_name_H-M   'P 1'
_cell_length_a   38.99730000
_cell_length_b   38.99730000
_cell_length_c   54.46660000
_cell_angle_alpha   90.00000000
_cell_angle_beta   90.00000000
_cell_angle_gamma   90.00000000
_symmetry_Int_Tables_number   1
_chemical_formula_structural   CuH28C36(N2O)4
_chemical_formula_sum   'Cu8 H224 C288 N64 O32'
_cell_volume   82832.22833110
_cell_formula_units_Z   8
loop_
 _symmetry_equiv_pos_site_id
 _symmetry_equiv_pos_as_xyz
  1  'x, y, z'
loop_
 _atom_site_type_symbol
 _atom_site_label
 _atom_site_symmetry_multiplicity
 _atom_site_fract_x
 _atom_site_fract_y
 _atom_site_fract_z
 _atom_site_occupancy
  Cu  Cu0  1  0.99533000  0.24808000  0.60978000  1.0
  Cu  Cu1  1  0.24149000  0.97405000  0.37711000  1.0
  Cu  Cu2  1  0.98517000  0.75147000  0.61434000  1.0
  Cu  Cu3  1  0.74303000  0.01906000  0.37950000  1.0
  Cu  Cu4  1  0.00386000  0.23298000  0.10901000  1.0
  Cu  Cu5  1  0.24542000  0.01026000  0.87410000  1.0
  Cu  Cu6  1  0.00264000  0.73805000  0.10925000  1.0
  Cu  Cu7  1  0.74667000  0.99070000  0.88270000  1.0
  H  H8  1  0.96461000  0.37355000  0.60357000  1.0
  H  H9  1  0.95581000  0.31176000  0.59776000  1.0
  H  H10  1  0.05024000  0.28970000  0.63253000  1.0
  H  H11  1  0.06060000  0.35150000  0.63976000  1.0
  H  H12  1  0.89761000  0.24622000  0.55027000  1.0
  H  H13  1  0.95407000  0.26389000  0.56643000  1.0
  H  H14  1  0.93597000  0.21052000  0.63276000  1.0
  H  H15  1  0.87904000  0.19165000  0.61789000  1.0
  H  H16  1  0.10266000  0.24071000  0.55747000  1.0
  H  H17  1  0.06435000  0.26714000  0.58818000  1.0
  H  H18  1  0.98897000  0.19127000  0.57536000  1.0
  H  H19  1  0.02545000  0.16360000  0.54419000  1.0
  H  H20  1  0.01207000  0.23373000  0.70131000  1.0
  H  H21  1  0.99138000  0.26287000  0.66367000  1.0
  H  H22  1  0.02518000  0.17996000  0.61986000  1.0
  H  H23  1  0.04601000  0.14917000  0.65636000  1.0
  H  H24  1  0.35124000  0.03322000  0.35266000  1.0
  H  H25  1  0.28943000  0.02935000  0.36179000  1.0
  H  H26  1  0.29717000  0.92226000  0.37255000  1.0
  H  H27  1  0.35942000  0.92398000  0.36379000  1.0
  H  H28  1  0.25293000  0.08022000  0.42884000  1.0
  H  H29  1  0.27342000  0.02862000  0.40736000  1.0
  H  H30  1  0.17513000  0.01178000  0.37686000  1.0
  H  H31  1  0.15216000  0.06244000  0.39859000  1.0
  H  H32  1  0.26975000  0.89679000  0.44941000  1.0
  H  H33  1  0.28298000  0.93896000  0.41701000  1.0
  H  H34  1  0.17997000  0.93787000  0.39276000  1.0
  H  H35  1  0.16437000  0.89639000  0.42506000  1.0
  H  H36  1  0.17720000  0.99506000  0.29755000  1.0
  H  H37  1  0.21045000  0.01206000  0.33443000  1.0
  H  H38  1  0.21981000  0.90833000  0.35603000  1.0
  H  H39  1  0.18686000  0.88938000  0.31992000  1.0
  H  H40  1  0.02789000  0.64087000  0.65194000  1.0
  H  H41  1  0.02674000  0.70349000  0.64506000  1.0
  H  H42  1  0.94419000  0.69302000  0.59527000  1.0
  H  H43  1  0.94364000  0.63042000  0.60118000  1.0
  H  H44  1  0.11241000  0.74988000  0.59337000  1.0
  H  H45  1  0.05937000  0.72621000  0.61112000  1.0
  H  H46  1  0.00445000  0.81579000  0.59186000  1.0
  H  H47  1  0.05617000  0.84090000  0.57303000  1.0
  H  H48  1  0.93407000  0.74867000  0.52950000  1.0
  H  H49  1  0.97481000  0.73268000  0.56209000  1.0
  H  H50  1  0.92321000  0.79604000  0.61312000  1.0
  H  H51  1  0.88250000  0.81493000  0.58126000  1.0
  H  H52  1  0.97889000  0.84752000  0.67662000  1.0
  H  H53  1  0.00113000  0.81810000  0.63983000  1.0
  H  H54  1  0.93965000  0.73120000  0.65463000  1.0
  H  H55  1  0.91576000  0.75906000  0.69163000  1.0
  H  H56  1  0.62660000  0.96665000  0.36346000  1.0
  H  H57  1  0.68921000  0.96591000  0.36804000  1.0
  H  H58  1  0.69167000  0.07382000  0.37528000  1.0
  H  H59  1  0.62892000  0.07708000  0.36963000  1.0
  H  H60  1  0.73554000  0.90836000  0.42682000  1.0
  H  H61  1  0.71328000  0.96177000  0.40906000  1.0
  H  H62  1  0.80802000  0.98103000  0.37391000  1.0
  H  H63  1  0.83322000  0.92912000  0.39248000  1.0
  H  H64  1  0.71797000  0.08819000  0.45617000  1.0
  H  H65  1  0.70310000  0.05191000  0.42069000  1.0
  H  H66  1  0.80662000  0.05000000  0.39759000  1.0
  H  H67  1  0.82382000  0.08558000  0.43300000  1.0
  H  H68  1  0.79530000  0.00330000  0.29541000  1.0
  H  H69  1  0.76393000  0.98535000  0.33284000  1.0
  H  H70  1  0.77261000  0.08515000  0.36255000  1.0
  H  H71  1  0.80429000  0.10492000  0.32606000  1.0
  H  H72  1  0.05224000  0.35240000  0.10256000  1.0
  H  H73  1  0.05317000  0.28966000  0.09865000  1.0
  H  H74  1  0.95488000  0.28211000  0.13096000  1.0
  H  H75  1  0.95233000  0.34499000  0.13635000  1.0
  H  H76  1  0.10027000  0.21156000  0.05104000  1.0
  H  H77  1  0.04625000  0.23692000  0.06516000  1.0
  H  H78  1  0.05881000  0.19315000  0.13557000  1.0
  H  H79  1  0.11412000  0.16723000  0.12305000  1.0
  H  H80  1  0.91872000  0.26100000  0.04186000  1.0
  H  H81  1  0.95192000  0.27237000  0.07937000  1.0
  H  H82  1  0.99593000  0.17336000  0.07657000  1.0
  H  H83  1  0.96242000  0.15929000  0.03952000  1.0
  H  H84  1  0.97358000  0.22063000  0.19873000  1.0
  H  H85  1  0.99908000  0.24886000  0.16244000  1.0
  H  H86  1  0.97171000  0.16479000  0.11750000  1.0
  H  H87  1  0.94710000  0.13433000  0.15284000  1.0
  H  H88  1  0.35930000  0.94966000  0.86629000  1.0
  H  H89  1  0.29799000  0.95432000  0.87647000  1.0
  H  H90  1  0.29461000  0.05564000  0.84892000  1.0
  H  H91  1  0.35643000  0.05342000  0.83877000  1.0
  H  H92  1  0.22986000  0.91575000  0.93447000  1.0
  H  H93  1  0.25910000  0.96444000  0.91523000  1.0
  H  H94  1  0.18946000  0.96348000  0.85579000  1.0
  H  H95  1  0.15883000  0.91389000  0.87363000  1.0
  H  H96  1  0.28367000  0.10460000  0.93245000  1.0
  H  H97  1  0.28794000  0.06839000  0.89523000  1.0
  H  H98  1  0.19620000  0.01683000  0.91407000  1.0
  H  H99  1  0.19027000  0.05162000  0.95152000  1.0
  H  H100  1  0.20748000  0.02062000  0.78604000  1.0
  H  H101  1  0.23924000  0.99544000  0.82102000  1.0
  H  H102  1  0.19527000  0.06748000  0.86973000  1.0
  H  H103  1  0.16347000  0.09461000  0.83592000  1.0
  H  H104  1  0.96291000  0.61503000  0.11166000  1.0
  H  H105  1  0.95711000  0.67696000  0.10445000  1.0
  H  H106  1  0.05756000  0.69453000  0.13095000  1.0
  H  H107  1  0.06546000  0.63241000  0.13860000  1.0
  H  H108  1  0.90506000  0.73615000  0.04966000  1.0
  H  H109  1  0.96031000  0.71764000  0.06744000  1.0
  H  H110  1  0.94556000  0.78216000  0.12895000  1.0
  H  H111  1  0.89005000  0.80224000  0.11226000  1.0
  H  H112  1  0.10690000  0.73075000  0.05339000  1.0
  H  H113  1  0.07041000  0.71314000  0.08833000  1.0
  H  H114  1  0.99784000  0.79000000  0.07090000  1.0
  H  H115  1  0.03192000  0.80815000  0.03529000  1.0
  H  H116  1  0.02837000  0.75906000  0.19892000  1.0
  H  H117  1  0.00954000  0.72494000  0.16312000  1.0
  H  H118  1  0.02158000  0.81061000  0.11635000  1.0
  H  H119  1  0.03929000  0.84678000  0.15117000  1.0
  H  H120  1  0.62990000  0.03555000  0.85804000  1.0
  H  H121  1  0.69251000  0.03922000  0.86374000  1.0
  H  H122  1  0.69713000  0.93444000  0.88344000  1.0
  H  H123  1  0.63465000  0.92839000  0.87774000  1.0
  H  H124  1  0.72757000  0.09946000  0.92986000  1.0
  H  H125  1  0.71013000  0.04648000  0.90857000  1.0
  H  H126  1  0.81106000  0.03138000  0.88251000  1.0
  H  H127  1  0.83075000  0.08337000  0.90362000  1.0
  H  H128  1  0.71844000  0.93663000  0.96429000  1.0
  H  H129  1  0.70709000  0.97103000  0.92702000  1.0
  H  H130  1  0.80682000  0.95081000  0.90025000  1.0
  H  H131  1  0.82033000  0.91646000  0.93692000  1.0
  H  H132  1  0.81842000  0.00364000  0.80549000  1.0
  H  H133  1  0.78326000  0.02454000  0.84028000  1.0
  H  H134  1  0.76728000  0.92295000  0.86488000  1.0
  H  H135  1  0.80259000  0.90014000  0.83125000  1.0
  H  H136  1  0.96113000  0.58278000  0.63025000  1.0
  H  H137  1  0.04472000  0.41154000  0.62561000  1.0
  H  H138  1  0.96738000  0.53701000  0.65768000  1.0
  H  H139  1  0.95940000  0.47509000  0.65847000  1.0
  H  H140  1  0.04393000  0.46320000  0.60775000  1.0
  H  H141  1  0.05213000  0.52499000  0.60740000  1.0
  H  H142  1  0.57457000  0.04447000  0.37439000  1.0
  H  H143  1  0.40785000  0.95982000  0.34483000  1.0
  H  H144  1  0.52834000  0.02158000  0.39287000  1.0
  H  H145  1  0.46653000  0.02280000  0.39788000  1.0
  H  H146  1  0.45388000  0.98426000  0.32408000  1.0
  H  H147  1  0.51603000  0.98353000  0.31884000  1.0
  H  H148  1  0.97487000  0.40057000  0.11995000  1.0
  H  H149  1  0.03076000  0.57503000  0.14522000  1.0
  H  H150  1  0.98204000  0.44633000  0.09491000  1.0
  H  H151  1  0.97578000  0.50773000  0.08954000  1.0
  H  H152  1  0.05732000  0.52493000  0.14192000  1.0
  H  H153  1  0.06239000  0.46340000  0.14817000  1.0
  H  H154  1  0.40837000  0.01499000  0.83310000  1.0
  H  H155  1  0.57971000  0.96177000  0.87954000  1.0
  H  H156  1  0.45801000  0.99074000  0.82087000  1.0
  H  H157  1  0.51998000  0.99417000  0.81522000  1.0
  H  H158  1  0.53392000  0.99426000  0.89387000  1.0
  H  H159  1  0.47228000  0.99123000  0.89962000  1.0
  H  H160  1  0.16624000  0.11612000  0.42279000  1.0
  H  H161  1  0.08672000  0.15511000  0.53201000  1.0
  H  H162  1  0.16530000  0.16861000  0.44193000  1.0
  H  H163  1  0.13028000  0.20641000  0.46750000  1.0
  H  H164  1  0.14372000  0.13764000  0.52889000  1.0
  H  H165  1  0.17770000  0.09952000  0.50335000  1.0
  H  H166  1  0.18612000  0.85289000  0.45441000  1.0
  H  H167  1  0.11940000  0.83806000  0.56907000  1.0
  H  H168  1  0.19223000  0.80536000  0.47801000  1.0
  H  H169  1  0.15862000  0.77322000  0.50773000  1.0
  H  H170  1  0.17395000  0.85368000  0.56119000  1.0
  H  H171  1  0.20607000  0.88665000  0.53100000  1.0
  H  H172  1  0.82288000  0.87456000  0.41542000  1.0
  H  H173  1  0.85816000  0.80415000  0.54031000  1.0
  H  H174  1  0.86723000  0.87392000  0.44408000  1.0
  H  H175  1  0.90626000  0.84171000  0.47013000  1.0
  H  H176  1  0.81979000  0.80103000  0.51050000  1.0
  H  H177  1  0.78098000  0.83426000  0.48483000  1.0
  H  H178  1  0.80361000  0.12573000  0.46566000  1.0
  H  H179  1  0.83879000  0.22067000  0.56152000  1.0
  H  H180  1  0.79722000  0.16984000  0.49267000  1.0
  H  H181  1  0.82996000  0.19672000  0.52512000  1.0
  H  H182  1  0.81227000  0.10879000  0.57182000  1.0
  H  H183  1  0.78067000  0.08108000  0.53863000  1.0
  H  H184  1  0.78033000  0.12337000  0.95136000  1.0
  H  H185  1  0.93027000  0.18264000  0.00431000  1.0
  H  H186  1  0.78778000  0.17278000  0.97091000  1.0
  H  H187  1  0.81720000  0.19871000  0.00557000  1.0
  H  H188  1  0.91283000  0.19437000  0.96561000  1.0
  H  H189  1  0.88372000  0.16666000  0.93143000  1.0
  H  H190  1  0.23670000  0.12772000  0.96411000  1.0
  H  H191  1  0.14581000  0.14517000  0.08554000  1.0
  H  H192  1  0.24464000  0.15525000  0.00020000  1.0
  H  H193  1  0.21792000  0.19353000  0.02994000  1.0
  H  H194  1  0.15057000  0.11133000  0.05272000  1.0
  H  H195  1  0.17740000  0.07336000  0.02335000  1.0
  H  H196  1  0.10547000  0.76269000  0.01140000  1.0
  H  H197  1  0.14460000  0.88755000  0.91476000  1.0
  H  H198  1  0.15471000  0.78221000  0.99424000  1.0
  H  H199  1  0.18887000  0.80193000  0.95947000  1.0
  H  H200  1  0.12586000  0.89282000  0.95440000  1.0
  H  H201  1  0.09126000  0.87269000  0.98847000  1.0
  H  H202  1  0.76682000  0.91369000  0.99156000  1.0
  H  H203  1  0.84784000  0.76770000  0.05863000  1.0
  H  H204  1  0.80863000  0.90725000  0.01961000  1.0
  H  H205  1  0.83536000  0.88328000  0.05602000  1.0
  H  H206  1  0.84158000  0.78456000  0.02015000  1.0
  H  H207  1  0.81329000  0.80803000  0.98437000  1.0
  H  H208  1  0.03161000  0.17533000  0.71940000  1.0
  H  H209  1  0.17825000  0.07392000  0.77092000  1.0
  H  H210  1  0.04225000  0.12433000  0.73945000  1.0
  H  H211  1  0.06590000  0.09467000  0.77504000  1.0
  H  H212  1  0.16790000  0.12583000  0.75348000  1.0
  H  H213  1  0.14435000  0.15513000  0.71792000  1.0
  H  H214  1  0.03624000  0.81955000  0.21534000  1.0
  H  H215  1  0.16690000  0.94133000  0.26834000  1.0
  H  H216  1  0.07735000  0.82009000  0.24470000  1.0
  H  H217  1  0.10144000  0.84607000  0.28133000  1.0
  H  H218  1  0.12762000  0.93666000  0.23950000  1.0
  H  H219  1  0.10379000  0.91032000  0.20279000  1.0
  H  H220  1  0.92449000  0.80752000  0.72273000  1.0
  H  H221  1  0.85592000  0.95204000  0.79166000  1.0
  H  H222  1  0.87148000  0.82003000  0.73635000  1.0
  H  H223  1  0.83436000  0.84324000  0.76805000  1.0
  H  H224  1  0.87179000  0.94520000  0.75231000  1.0
  H  H225  1  0.91002000  0.92171000  0.72116000  1.0
  H  H226  1  0.81229000  0.05660000  0.26967000  1.0
  H  H227  1  0.95266000  0.16517000  0.21659000  1.0
  H  H228  1  0.81807000  0.10443000  0.24435000  1.0
  H  H229  1  0.84409000  0.12807000  0.20747000  1.0
  H  H230  1  0.94422000  0.11992000  0.24111000  1.0
  H  H231  1  0.91798000  0.09690000  0.27813000  1.0
  C  C232  1  0.06655000  0.20046000  0.54788000  1.0
  C  C233  1  0.07737000  0.23007000  0.56041000  1.0
  C  C234  1  0.05581000  0.24494000  0.57800000  1.0
  C  C235  1  0.01354000  0.20242000  0.57078000  1.0
  C  C236  1  0.03424000  0.18673000  0.55323000  1.0
  C  C237  1  0.03172000  0.18972000  0.68163000  1.0
  C  C238  1  0.01499000  0.22142000  0.68361000  1.0
  C  C239  1  0.00328000  0.23788000  0.66238000  1.0
  C  C240  1  0.02232000  0.19148000  0.63778000  1.0
  C  C241  1  0.03440000  0.17422000  0.65846000  1.0
  C  C242  1  0.01290000  0.36738000  0.62298000  1.0
  C  C243  1  0.98346000  0.35575000  0.61065000  1.0
  C  C244  1  0.97865000  0.32065000  0.60698000  1.0
  C  C245  1  0.03159000  0.30841000  0.62646000  1.0
  C  C246  1  0.03738000  0.34331000  0.63057000  1.0
  C  C247  1  0.88435000  0.21697000  0.58261000  1.0
  C  C248  1  0.90521000  0.23865000  0.56861000  1.0
  C  C249  1  0.93702000  0.24875000  0.57775000  1.0
  C  C250  1  0.92697000  0.21866000  0.61491000  1.0
  C  C251  1  0.89495000  0.20770000  0.60635000  1.0
  C  C252  1  0.21562000  0.89385000  0.44015000  1.0
  C  C253  1  0.24946000  0.90570000  0.43746000  1.0
  C  C254  1  0.25718000  0.92913000  0.41879000  1.0
  C  C255  1  0.19943000  0.92849000  0.40522000  1.0
  C  C256  1  0.19063000  0.90517000  0.42355000  1.0
  C  C257  1  0.17831000  0.94101000  0.30642000  1.0
  C  C258  1  0.18601000  0.97570000  0.31032000  1.0
  C  C259  1  0.20474000  0.98531000  0.33113000  1.0
  C  C260  1  0.20985000  0.92716000  0.34332000  1.0
  C  C261  1  0.19104000  0.91650000  0.32294000  1.0
  C  C262  1  0.36042000  0.97895000  0.35854000  1.0
  C  C263  1  0.34015000  0.00867000  0.35745000  1.0
  C  C264  1  0.30514000  0.00653000  0.36256000  1.0
  C  C265  1  0.30946000  0.94646000  0.36848000  1.0
  C  C266  1  0.34457000  0.94743000  0.36339000  1.0
  C  C267  1  0.20049000  0.07476000  0.41598000  1.0
  C  C268  1  0.23528000  0.06570000  0.41757000  1.0
  C  C269  1  0.24716000  0.03686000  0.40498000  1.0
  C  C270  1  0.19206000  0.02744000  0.38787000  1.0
  C  C271  1  0.17906000  0.05597000  0.40029000  1.0
  C  C272  1  0.90571000  0.78436000  0.55256000  1.0
  C  C273  1  0.93151000  0.76017000  0.54747000  1.0
  C  C274  1  0.95428000  0.75051000  0.56604000  1.0
  C  C275  1  0.92535000  0.78591000  0.59471000  1.0
  C  C276  1  0.90237000  0.79663000  0.57664000  1.0
  C  C277  1  0.94458000  0.80590000  0.68655000  1.0
  C  C278  1  0.96962000  0.82214000  0.67209000  1.0
  C  C279  1  0.98264000  0.80531000  0.65142000  1.0
  C  C280  1  0.94828000  0.75654000  0.65982000  1.0
  C  C281  1  0.93471000  0.77236000  0.68065000  1.0
  C  C282  1  0.98652000  0.63062000  0.62633000  1.0
  C  C283  1  0.00992000  0.65162000  0.63891000  1.0
  C  C284  1  0.00928000  0.68708000  0.63506000  1.0
  C  C285  1  0.96296000  0.68133000  0.60720000  1.0
  C  C286  1  0.96249000  0.64590000  0.61068000  1.0
  C  C287  1  0.08814000  0.79699000  0.58105000  1.0
  C  C288  1  0.08900000  0.76472000  0.59254000  1.0
  C  C289  1  0.05901000  0.75145000  0.60301000  1.0
  C  C290  1  0.02834000  0.80170000  0.59219000  1.0
  C  C291  1  0.05758000  0.81583000  0.58152000  1.0
  C  C292  1  0.77241000  0.08902000  0.44771000  1.0
  C  C293  1  0.73799000  0.07990000  0.44376000  1.0
  C  C294  1  0.72938000  0.05989000  0.42336000  1.0
  C  C295  1  0.78742000  0.05885000  0.41045000  1.0
  C  C296  1  0.79712000  0.07878000  0.43054000  1.0
  C  C297  1  0.80331000  0.05518000  0.30824000  1.0
  C  C298  1  0.79091000  0.02155000  0.31006000  1.0
  C  C299  1  0.77321000  0.01139000  0.33117000  1.0
  C  C300  1  0.77828000  0.06727000  0.34794000  1.0
  C  C301  1  0.79634000  0.07838000  0.32730000  1.0
  C  C302  1  0.62268000  0.02225000  0.36554000  1.0
  C  C303  1  0.64018000  0.99070000  0.36522000  1.0
  C  C304  1  0.67574000  0.99012000  0.36839000  1.0
  C  C305  1  0.67706000  0.05060000  0.37233000  1.0
  C  C306  1  0.64162000  0.05240000  0.36905000  1.0
  C  C307  1  0.78687000  0.91523000  0.41191000  1.0
  C  C308  1  0.75224000  0.92391000  0.41555000  1.0
  C  C309  1  0.73915000  0.95372000  0.40486000  1.0
  C  C310  1  0.79226000  0.96451000  0.38518000  1.0
  C  C311  1  0.80654000  0.93526000  0.39584000  1.0
  C  C312  1  0.93685000  0.20850000  0.03819000  1.0
  C  C313  1  0.93442000  0.24081000  0.04954000  1.0
  C  C314  1  0.95354000  0.24748000  0.07073000  1.0
  C  C315  1  0.97819000  0.19198000  0.06914000  1.0
  C  C316  1  0.95939000  0.18416000  0.04809000  1.0
  C  C317  1  0.95693000  0.17589000  0.17848000  1.0
  C  C318  1  0.97284000  0.20792000  0.18106000  1.0
  C  C319  1  0.98718000  0.22396000  0.16054000  1.0
  C  C320  1  0.97183000  0.17688000  0.13533000  1.0
  C  C321  1  0.95746000  0.15982000  0.15539000  1.0
  C  C322  1  0.00256000  0.35369000  0.12068000  1.0
  C  C323  1  0.03108000  0.33763000  0.10985000  1.0
  C  C324  1  0.03150000  0.30200000  0.10730000  1.0
  C  C325  1  0.97639000  0.29783000  0.12542000  1.0
  C  C326  1  0.97497000  0.33333333  0.12841000  1.0
  C  C327  1  0.11235000  0.18827000  0.08630000  1.0
  C  C328  1  0.09278000  0.20826000  0.07001000  1.0
  C  C329  1  0.06185000  0.22237000  0.07786000  1.0
  C  C330  1  0.06883000  0.19776000  0.11734000  1.0
  C  C331  1  0.10007000  0.18315000  0.11024000  1.0
  C  C332  1  0.23732000  0.08002000  0.94533000  1.0
  C  C333  1  0.26440000  0.08525000  0.92884000  1.0
  C  C334  1  0.26676000  0.06487000  0.90776000  1.0
  C  C335  1  0.21543000  0.03586000  0.91842000  1.0
  C  C336  1  0.21230000  0.05537000  0.93973000  1.0
  C  C337  1  0.18199000  0.05887000  0.80830000  1.0
  C  C338  1  0.20410000  0.03106000  0.80431000  1.0
  C  C339  1  0.22206000  0.01682000  0.82401000  1.0
  C  C340  1  0.19734000  0.05713000  0.85137000  1.0
  C  C341  1  0.17897000  0.07221000  0.83219000  1.0
  C  C342  1  0.36303000  0.00188000  0.85266000  1.0
  C  C343  1  0.34588000  0.97341000  0.86265000  1.0
  C  C344  1  0.31103000  0.97588000  0.86823000  1.0
  C  C345  1  0.30919000  0.03261000  0.85266000  1.0
  C  C346  1  0.34406000  0.03131000  0.84690000  1.0
  C  C347  1  0.19245000  0.91000000  0.90511000  1.0
  C  C348  1  0.22140000  0.92433000  0.91658000  1.0
  C  C349  1  0.23797000  0.95220000  0.90580000  1.0
  C  C350  1  0.19886000  0.95180000  0.87249000  1.0
  C  C351  1  0.18150000  0.92380000  0.88265000  1.0
  C  C352  1  0.07292000  0.77165000  0.04211000  1.0
  C  C353  1  0.08306000  0.74408000  0.05695000  1.0
  C  C354  1  0.06245000  0.73414000  0.07674000  1.0
  C  C355  1  0.02181000  0.77721000  0.06693000  1.0
  C  C356  1  0.04146000  0.78780000  0.04695000  1.0
  C  C357  1  0.03675000  0.80524000  0.17773000  1.0
  C  C358  1  0.02711000  0.77090000  0.18095000  1.0
  C  C359  1  0.01656000  0.75155000  0.16074000  1.0
  C  C360  1  0.02338000  0.79960000  0.13452000  1.0
  C  C361  1  0.03386000  0.81992000  0.15426000  1.0
  C  C362  1  0.01526000  0.61881000  0.12485000  1.0
  C  C363  1  0.98428000  0.63185000  0.11565000  1.0
  C  C364  1  0.98089000  0.66701000  0.11167000  1.0
  C  C365  1  0.03712000  0.67676000  0.12664000  1.0
  C  C366  1  0.04154000  0.64171000  0.13101000  1.0
  C  C367  1  0.89371000  0.77106000  0.07938000  1.0
  C  C368  1  0.91310000  0.74600000  0.06734000  1.0
  C  C369  1  0.94421000  0.73546000  0.07739000  1.0
  C  C370  1  0.93606000  0.77178000  0.11184000  1.0
  C  C371  1  0.90484000  0.78333000  0.10228000  1.0
  C  C372  1  0.76976000  0.92264000  0.95306000  1.0
  C  C373  1  0.73796000  0.93885000  0.95024000  1.0
  C  C374  1  0.73147000  0.95813000  0.92914000  1.0
  C  C375  1  0.78734000  0.94670000  0.91407000  1.0
  C  C376  1  0.79487000  0.92713000  0.93483000  1.0
  C  C377  1  0.81249000  0.95017000  0.81519000  1.0
  C  C378  1  0.80739000  0.98550000  0.81830000  1.0
  C  C379  1  0.78764000  0.99734000  0.83800000  1.0
  C  C380  1  0.77859000  0.94038000  0.85173000  1.0
  C  C381  1  0.79817000  0.92748000  0.83239000  1.0
  C  C382  1  0.62737000  0.98128000  0.86698000  1.0
  C  C383  1  0.64411000  0.01269000  0.86286000  1.0
  C  C384  1  0.67956000  0.01498000  0.86643000  1.0
  C  C385  1  0.68212000  0.95625000  0.87751000  1.0
  C  C386  1  0.64685000  0.95284000  0.87419000  1.0
  C  C387  1  0.78026000  0.09652000  0.91769000  1.0
  C  C388  1  0.74601000  0.08574000  0.91870000  1.0
  C  C389  1  0.73602000  0.05593000  0.90646000  1.0
  C  C390  1  0.79261000  0.04751000  0.89181000  1.0
  C  C391  1  0.80371000  0.07717000  0.90381000  1.0
  C  C392  1  0.01368000  0.57366000  0.63031000  1.0
  C  C393  1  0.01010000  0.53589000  0.63220000  1.0
  C  C394  1  0.98426000  0.52112000  0.64672000  1.0
  C  C395  1  0.97981000  0.48558000  0.64727000  1.0
  C  C396  1  0.00118000  0.46391000  0.63340000  1.0
  C  C397  1  0.02749000  0.47875000  0.61924000  1.0
  C  C398  1  0.03208000  0.51431000  0.61885000  1.0
  C  C399  1  0.99434000  0.42639000  0.63282000  1.0
  C  C400  1  0.56513000  0.00236000  0.35198000  1.0
  C  C401  1  0.52728000  0.00316000  0.35521000  1.0
  C  C402  1  0.51254000  0.01398000  0.37747000  1.0
  C  C403  1  0.47699000  0.01439000  0.38046000  1.0
  C  C404  1  0.45527000  0.00337000  0.36148000  1.0
  C  C405  1  0.46990000  0.99227000  0.33927000  1.0
  C  C406  1  0.50553000  0.99206000  0.33621000  1.0
  C  C407  1  0.41758000  0.00409000  0.36512000  1.0
  C  C408  1  0.02630000  0.41227000  0.12568000  1.0
  C  C409  1  0.02206000  0.44986000  0.12255000  1.0
  C  C410  1  0.99797000  0.46313000  0.10586000  1.0
  C  C411  1  0.99468000  0.49845000  0.10252000  1.0
  C  C412  1  0.01545000  0.52148000  0.11565000  1.0
  C  C413  1  0.03998000  0.50823000  0.13206000  1.0
  C  C414  1  0.04322000  0.47281000  0.13545000  1.0
  C  C415  1  0.01169000  0.55887000  0.11116000  1.0
  C  C416  1  0.42240000  0.98882000  0.86496000  1.0
  C  C417  1  0.46000000  0.99108000  0.86076000  1.0
  C  C418  1  0.47417000  0.99202000  0.83699000  1.0
  C  C419  1  0.50974000  0.99372000  0.83370000  1.0
  C  C420  1  0.53184000  0.99391000  0.85406000  1.0
  C  C421  1  0.51767000  0.99321000  0.87776000  1.0
  C  C422  1  0.48224000  0.99166000  0.88106000  1.0
  C  C423  1  0.56955000  0.99507000  0.85069000  1.0
  C  C424  1  0.19318000  0.10593000  0.45502000  1.0
  C  C425  1  0.17355000  0.13051000  0.47040000  1.0
  C  C426  1  0.16038000  0.16130000  0.46077000  1.0
  C  C427  1  0.14064000  0.18318000  0.47548000  1.0
  C  C428  1  0.13350000  0.17455000  0.50000000  1.0
  C  C429  1  0.14784000  0.14451000  0.50985000  1.0
  C  C430  1  0.16764000  0.12280000  0.49524000  1.0
  C  C431  1  0.11075000  0.19643000  0.51519000  1.0
  C  C432  1  0.21671000  0.87138000  0.48274000  1.0
  C  C433  1  0.20062000  0.84928000  0.50177000  1.0
  C  C434  1  0.18807000  0.81646000  0.49598000  1.0
  C  C435  1  0.16914000  0.79778000  0.51317000  1.0
  C  C436  1  0.16241000  0.81140000  0.53657000  1.0
  C  C437  1  0.17731000  0.84300000  0.54300000  1.0
  C  C438  1  0.19616000  0.86175000  0.52577000  1.0
  C  C439  1  0.13835000  0.79329000  0.55334000  1.0
  C  C440  1  0.79746000  0.87943000  0.44877000  1.0
  C  C441  1  0.82101000  0.85651000  0.46239000  1.0
  C  C442  1  0.85653000  0.85761000  0.45823000  1.0
  C  C443  1  0.87896000  0.83928000  0.47333000  1.0
  C  C444  1  0.86642000  0.81952000  0.49299000  1.0
  C  C445  1  0.83069000  0.81706000  0.49629000  1.0
  C  C446  1  0.80830000  0.83574000  0.48136000  1.0
  C  C447  1  0.89099000  0.80280000  0.51018000  1.0
  C  C448  1  0.77131000  0.10421000  0.49188000  1.0
  C  C449  1  0.78713000  0.12287000  0.51278000  1.0
  C  C450  1  0.80030000  0.15616000  0.50982000  1.0
  C  C451  1  0.81852000  0.17198000  0.52878000  1.0
  C  C452  1  0.82355000  0.15509000  0.55133000  1.0
  C  C453  1  0.80888000  0.12250000  0.55469000  1.0
  C  C454  1  0.79069000  0.10666000  0.53568000  1.0
  C  C455  1  0.84707000  0.16924000  0.57027000  1.0
  C  C456  1  0.81736000  0.14582000  0.92887000  1.0
  C  C457  1  0.83366000  0.16626000  0.94873000  1.0
  C  C458  1  0.81518000  0.17673000  0.96961000  1.0
  C  C459  1  0.83200000  0.19209000  0.98943000  1.0
  C  C460  1  0.86763000  0.19742000  0.98881000  1.0
  C  C461  1  0.88563000  0.18930000  0.96720000  1.0
  C  C462  1  0.86883000  0.17384000  0.94741000  1.0
  C  C463  1  0.88568000  0.21031000  0.01102000  1.0
  C  C464  1  0.22527000  0.08863000  0.98918000  1.0
  C  C465  1  0.21262000  0.11141000  0.00903000  1.0
  C  C466  1  0.22420000  0.14535000  0.01161000  1.0
  C  C467  1  0.20909000  0.16724000  0.02887000  1.0
  C  C468  1  0.18221000  0.15565000  0.04397000  1.0
  C  C469  1  0.17172000  0.12122000  0.04201000  1.0
  C  C470  1  0.18697000  0.09936000  0.02492000  1.0
  C  C471  1  0.16286000  0.18036000  0.05948000  1.0
  C  C472  1  0.09978000  0.81563000  0.01591000  1.0
  C  C473  1  0.11986000  0.82566000  0.99392000  1.0
  C  C474  1  0.14748000  0.80587000  0.98525000  1.0
  C  C475  1  0.16728000  0.81731000  0.96542000  1.0
  C  C476  1  0.15974000  0.84859000  0.95378000  1.0
  C  C477  1  0.13187000  0.86809000  0.96233000  1.0
  C  C478  1  0.11225000  0.85677000  0.98215000  1.0
  C  C479  1  0.18274000  0.86242000  0.93443000  1.0
  C  C480  1  0.79544000  0.87432000  0.97568000  1.0
  C  C481  1  0.80824000  0.85944000  0.99907000  1.0
  C  C482  1  0.81437000  0.88011000  0.01978000  1.0
  C  C483  1  0.83008000  0.86642000  0.04067000  1.0
  C  C484  1  0.84018000  0.83185000  0.04136000  1.0
  C  C485  1  0.83325000  0.81100000  0.02086000  1.0
  C  C486  1  0.81740000  0.82463000  0.00004000  1.0
  C  C487  1  0.86154000  0.81925000  0.06208000  1.0
  C  C488  1  0.07779000  0.15958000  0.70363000  1.0
  C  C489  1  0.09140000  0.14236000  0.72591000  1.0
  C  C490  1  0.06967000  0.12521000  0.74245000  1.0
  C  C491  1  0.08326000  0.10796000  0.76278000  1.0
  C  C492  1  0.11886000  0.10720000  0.76687000  1.0
  C  C493  1  0.14047000  0.12483000  0.75052000  1.0
  C  C494  1  0.12692000  0.14195000  0.73020000  1.0
  C  C495  1  0.13311000  0.08860000  0.78839000  1.0
  C  C496  1  0.07517000  0.84712000  0.19805000  1.0
  C  C497  1  0.08825000  0.86334000  0.22084000  1.0
  C  C498  1  0.08767000  0.84578000  0.24336000  1.0
  C  C499  1  0.10179000  0.86063000  0.26439000  1.0
  C  C500  1  0.11712000  0.89325000  0.26344000  1.0
  C  C501  1  0.11714000  0.91107000  0.24097000  1.0
  C  C502  1  0.10312000  0.89612000  0.21989000  1.0
  C  C503  1  0.13305000  0.90759000  0.28604000  1.0
  C  C504  1  0.91629000  0.85528000  0.70651000  1.0
  C  C505  1  0.89454000  0.86891000  0.72666000  1.0
  C  C506  1  0.87269000  0.84725000  0.74011000  1.0
  C  C507  1  0.85095000  0.86065000  0.75809000  1.0
  C  C508  1  0.85048000  0.89598000  0.76312000  1.0
  C  C509  1  0.87215000  0.91773000  0.74955000  1.0
  C  C510  1  0.89386000  0.90431000  0.73148000  1.0
  C  C511  1  0.82638000  0.90943000  0.78192000  1.0
  C  C512  1  0.85024000  0.08540000  0.28705000  1.0
  C  C513  1  0.86600000  0.09853000  0.26412000  1.0
  C  C514  1  0.84567000  0.10733000  0.24378000  1.0
  C  C515  1  0.86062000  0.12114000  0.22266000  1.0
  C  C516  1  0.89622000  0.12666000  0.22138000  1.0
  C  C517  1  0.91662000  0.11723000  0.24160000  1.0
  C  C518  1  0.90161000  0.10366000  0.26280000  1.0
  C  C519  1  0.91145000  0.14188000  0.19881000  1.0
  N  N520  1  0.00257000  0.29780000  0.61486000  1.0
  N  N521  1  0.94742000  0.23833000  0.60037000  1.0
  N  N522  1  0.02470000  0.23074000  0.58294000  1.0
  N  N523  1  0.00772000  0.22299000  0.64002000  1.0
  N  N524  1  0.29077000  0.97591000  0.36866000  1.0
  N  N525  1  0.22551000  0.01831000  0.39059000  1.0
  N  N526  1  0.23227000  0.93973000  0.40302000  1.0
  N  N527  1  0.21571000  0.96107000  0.34730000  1.0
  N  N528  1  0.98645000  0.70110000  0.61905000  1.0
  N  N529  1  0.02943000  0.76997000  0.60248000  1.0
  N  N530  1  0.95081000  0.76344000  0.58909000  1.0
  N  N531  1  0.97140000  0.77333000  0.64553000  1.0
  N  N532  1  0.69323000  0.01973000  0.37255000  1.0
  N  N533  1  0.75924000  0.97338000  0.39007000  1.0
  N  N534  1  0.75403000  0.05001000  0.40715000  1.0
  N  N535  1  0.76768000  0.03413000  0.34969000  1.0
  N  N536  1  0.00432000  0.28295000  0.11494000  1.0
  N  N537  1  0.05036000  0.21662000  0.10104000  1.0
  N  N538  1  0.97475000  0.22308000  0.08013000  1.0
  N  N539  1  0.98580000  0.20859000  0.13814000  1.0
  N  N540  1  0.29368000  0.00545000  0.86370000  1.0
  N  N541  1  0.22619000  0.96567000  0.88439000  1.0
  N  N542  1  0.24250000  0.04064000  0.90307000  1.0
  N  N543  1  0.21835000  0.02999000  0.84696000  1.0
  N  N544  1  0.00735000  0.68860000  0.11674000  1.0
  N  N545  1  0.95527000  0.74877000  0.09906000  1.0
  N  N546  1  0.03255000  0.75092000  0.08141000  1.0
  N  N547  1  0.01544000  0.76600000  0.13803000  1.0
  N  N548  1  0.69755000  0.98717000  0.87426000  1.0
  N  N549  1  0.75931000  0.03741000  0.89344000  1.0
  N  N550  1  0.75589000  0.96126000  0.91144000  1.0
  N  N551  1  0.77406000  0.97474000  0.85436000  1.0
  N  N552  1  0.98540000  0.59416000  0.63017000  1.0
  N  N553  1  0.01923000  0.40341000  0.62663000  1.0
  N  N554  1  0.58579000  0.02412000  0.36483000  1.0
  N  N555  1  0.39684000  0.98026000  0.35442000  1.0
  N  N556  1  0.99957000  0.39045000  0.12172000  1.0
  N  N557  1  0.01997000  0.58262000  0.12854000  1.0
  N  N558  1  0.39945000  0.00145000  0.84837000  1.0
  N  N559  1  0.59059000  0.97856000  0.86676000  1.0
  N  N560  1  0.18622000  0.10201000  0.43063000  1.0
  N  N561  1  0.08905000  0.18183000  0.53176000  1.0
  N  N562  1  0.20598000  0.86974000  0.45894000  1.0
  N  N563  1  0.11758000  0.81133000  0.56882000  1.0
  N  N564  1  0.80303000  0.88714000  0.42466000  1.0
  N  N565  1  0.88221000  0.79634000  0.53400000  1.0
  N  N566  1  0.78288000  0.10922000  0.46852000  1.0
  N  N567  1  0.85354000  0.20352000  0.57179000  1.0
  N  N568  1  0.79160000  0.12329000  0.93397000  1.0
  N  N569  1  0.91848000  0.20033000  0.01600000  1.0
  N  N570  1  0.23401000  0.10133000  0.96673000  1.0
  N  N571  1  0.14182000  0.16939000  0.07784000  1.0
  N  N572  1  0.09406000  0.78212000  0.02177000  1.0
  N  N573  1  0.17102000  0.88561000  0.91773000  1.0
  N  N574  1  0.77714000  0.90406000  0.97526000  1.0
  N  N575  1  0.86425000  0.78515000  0.06720000  1.0
  N  N576  1  0.04575000  0.17355000  0.70315000  1.0
  N  N577  1  0.16521000  0.07478000  0.78768000  1.0
  N  N578  1  0.04828000  0.82475000  0.19861000  1.0
  N  N579  1  0.15926000  0.93071000  0.28506000  1.0
  N  N580  1  0.92890000  0.82267000  0.70723000  1.0
  N  N581  1  0.83376000  0.93794000  0.79542000  1.0
  N  N582  1  0.82125000  0.06593000  0.28649000  1.0
  N  N583  1  0.94149000  0.15980000  0.19959000  1.0
  O  O584  1  0.04420000  0.58680000  0.62599000  1.0
  O  O585  1  0.96372000  0.41535000  0.63928000  1.0
  O  O586  1  0.57839000  0.98151000  0.33552000  1.0
  O  O587  1  0.40467000  0.02639000  0.38075000  1.0
  O  O588  1  0.05599000  0.40031000  0.13335000  1.0
  O  O589  1  0.00005000  0.56896000  0.08963000  1.0
  O  O590  1  0.41151000  0.97706000  0.88624000  1.0
  O  O591  1  0.58232000  0.01056000  0.83127000  1.0
  O  O592  1  0.21447000  0.08472000  0.46605000  1.0
  O  O593  1  0.10962000  0.22964000  0.51101000  1.0
  O  O594  1  0.23775000  0.89587000  0.48978000  1.0
  O  O595  1  0.13351000  0.76016000  0.55023000  1.0
  O  O596  1  0.77305000  0.89491000  0.46122000  1.0
  O  O597  1  0.92287000  0.79840000  0.50288000  1.0
  O  O598  1  0.74926000  0.07951000  0.49658000  1.0
  O  O599  1  0.86475000  0.14752000  0.58377000  1.0
  O  O600  1  0.82990000  0.14784000  0.90647000  1.0
  O  O601  1  0.86808000  0.22780000  0.02741000  1.0
  O  O602  1  0.22488000  0.05524000  0.99282000  1.0
  O  O603  1  0.16465000  0.21328000  0.05427000  1.0
  O  O604  1  0.08761000  0.84015000  0.03007000  1.0
  O  O605  1  0.21514000  0.85295000  0.93416000  1.0
  O  O606  1  0.80207000  0.85814000  0.95499000  1.0
  O  O607  1  0.88128000  0.84143000  0.07359000  1.0
  O  O608  1  0.09820000  0.16304000  0.68452000  1.0
  O  O609  1  0.11338000  0.08368000  0.80769000  1.0
  O  O610  1  0.09135000  0.85336000  0.17733000  1.0
  O  O611  1  0.12211000  0.89650000  0.30750000  1.0
  O  O612  1  0.92138000  0.87465000  0.68706000  1.0
  O  O613  1  0.79725000  0.89305000  0.78540000  1.0
  O  O614  1  0.86558000  0.09167000  0.30812000  1.0
  O  O615  1  0.89376000  0.14038000  0.17824000  1.0
