# generated using pymatgen
data_CoH24C38S2(N3F4)2
_symmetry_space_group_name_H-M   'P 1'
_cell_length_a   31.18340000
_cell_length_b   31.18340000
_cell_length_c   45.63970000
_cell_angle_alpha   90.00000000
_cell_angle_beta   90.00000000
_cell_angle_gamma   90.00000000
_symmetry_Int_Tables_number   1
_chemical_formula_structural   CoH24C38S2(N3F4)2
_chemical_formula_sum   'Co8 H192 C304 S16 N48 F64'
_cell_volume   44380.24671763
_cell_formula_units_Z   8
loop_
 _symmetry_equiv_pos_site_id
 _symmetry_equiv_pos_as_xyz
  1  'x, y, z'
loop_
 _atom_site_type_symbol
 _atom_site_label
 _atom_site_symmetry_multiplicity
 _atom_site_fract_x
 _atom_site_fract_y
 _atom_site_fract_z
 _atom_site_occupancy
  Co  Co0  1  0.10134000  0.28651000  0.63501000  1.0
  Co  Co1  1  0.28139000  0.95565000  0.42723000  1.0
  Co  Co2  1  0.97695000  0.76474000  0.65345000  1.0
  Co  Co3  1  0.77977000  0.09898000  0.43367000  1.0
  Co  Co4  1  0.98163000  0.29280000  0.14812000  1.0
  Co  Co5  1  0.28677000  0.11561000  0.93294000  1.0
  Co  Co6  1  0.08542000  0.77804000  0.12698000  1.0
  Co  Co7  1  0.77036000  0.98044000  0.92950000  1.0
  H  H8  1  0.00827000  0.30825000  0.62402000  1.0
  H  H9  1  0.95903000  0.36435000  0.64058000  1.0
  H  H10  1  0.10834000  0.36189000  0.67551000  1.0
  H  H11  1  0.98455000  0.42180000  0.67301000  1.0
  H  H12  1  0.16354000  0.28027000  0.58526000  1.0
  H  H13  1  0.12976000  0.19628000  0.65467000  1.0
  H  H14  1  0.18078000  0.14330000  0.63686000  1.0
  H  H15  1  0.22584000  0.15887000  0.59391000  1.0
  H  H16  1  0.04765000  0.27589000  0.68886000  1.0
  H  H17  1  0.06055000  0.25853000  0.74026000  1.0
  H  H18  1  0.13310000  0.24446000  0.75776000  1.0
  H  H19  1  0.18097000  0.26856000  0.67067000  1.0
  H  H20  1  0.08626000  0.36974000  0.60223000  1.0
  H  H21  1  0.06775000  0.38912000  0.55190000  1.0
  H  H22  1  0.05829000  0.33302000  0.51461000  1.0
  H  H23  1  0.08184000  0.23741000  0.58036000  1.0
  H  H24  1  0.33701000  0.95343000  0.37148000  1.0
  H  H25  1  0.41242000  0.96185000  0.36048000  1.0
  H  H26  1  0.35959000  0.99186000  0.45968000  1.0
  H  H27  1  0.46246000  0.98729000  0.39798000  1.0
  H  H28  1  0.23149000  0.87449000  0.43751000  1.0
  H  H29  1  0.20293000  0.00766000  0.43977000  1.0
  H  H30  1  0.12833000  0.99230000  0.45229000  1.0
  H  H31  1  0.10442000  0.91808000  0.45888000  1.0
  H  H32  1  0.33182000  0.87888000  0.40515000  1.0
  H  H33  1  0.32425000  0.82847000  0.36445000  1.0
  H  H34  1  0.26483000  0.83544000  0.32983000  1.0
  H  H35  1  0.21880000  0.94408000  0.37866000  1.0
  H  H36  1  0.26166000  0.94511000  0.49076000  1.0
  H  H37  1  0.26050000  0.99106000  0.53395000  1.0
  H  H38  1  0.27698000  0.06745000  0.52970000  1.0
  H  H39  1  0.29960000  0.05020000  0.43746000  1.0
  H  H40  1  0.06888000  0.73564000  0.64771000  1.0
  H  H41  1  0.10827000  0.66966000  0.65828000  1.0
  H  H42  1  0.95316000  0.67820000  0.67736000  1.0
  H  H43  1  0.07057000  0.60620000  0.67648000  1.0
  H  H44  1  0.92740000  0.79654000  0.60164000  1.0
  H  H45  1  0.95645000  0.84960000  0.68492000  1.0
  H  H46  1  0.91408000  0.91301000  0.67343000  1.0
  H  H47  1  0.87594000  0.91829000  0.62622000  1.0
  H  H48  1  0.01580000  0.74418000  0.71219000  1.0
  H  H49  1  0.99095000  0.74349000  0.76290000  1.0
  H  H50  1  0.91774000  0.76576000  0.77492000  1.0
  H  H51  1  0.89285000  0.78425000  0.68304000  1.0
  H  H52  1  0.99245000  0.69462000  0.60818000  1.0
  H  H53  1  0.02117000  0.69254000  0.55835000  1.0
  H  H54  1  0.04526000  0.75858000  0.53433000  1.0
  H  H55  1  0.01314000  0.82901000  0.61228000  1.0
  H  H56  1  0.75297000  0.00677000  0.43940000  1.0
  H  H57  1  0.68639000  0.96659000  0.43274000  1.0
  H  H58  1  0.68640000  0.12410000  0.42605000  1.0
  H  H59  1  0.61872000  0.00442000  0.42371000  1.0
  H  H60  1  0.81911000  0.15514000  0.47903000  1.0
  H  H61  1  0.86156000  0.10536000  0.39744000  1.0
  H  H62  1  0.93151000  0.13913000  0.40413000  1.0
  H  H63  1  0.94594000  0.18294000  0.44744000  1.0
  H  H64  1  0.72915000  0.07304000  0.37912000  1.0
  H  H65  1  0.71588000  0.10289000  0.33107000  1.0
  H  H66  1  0.75043000  0.16995000  0.31596000  1.0
  H  H67  1  0.80997000  0.17872000  0.40016000  1.0
  H  H68  1  0.72711000  0.09199000  0.48871000  1.0
  H  H69  1  0.74069000  0.06667000  0.53881000  1.0
  H  H70  1  0.81041000  0.03419000  0.55143000  1.0
  H  H71  1  0.85198000  0.05341000  0.46279000  1.0
  H  H72  1  0.03106000  0.33149000  0.19873000  1.0
  H  H73  1  0.06700000  0.39929000  0.20830000  1.0
  H  H74  1  0.98943000  0.37659000  0.11557000  1.0
  H  H75  1  0.06300000  0.45791000  0.17275000  1.0
  H  H76  1  0.89321000  0.25668000  0.13238000  1.0
  H  H77  1  0.01893000  0.20424000  0.13833000  1.0
  H  H78  1  0.99005000  0.13216000  0.13309000  1.0
  H  H79  1  0.91287000  0.12163000  0.12402000  1.0
  H  H80  1  0.94717000  0.36267000  0.18953000  1.0
  H  H81  1  0.90930000  0.36413000  0.23571000  1.0
  H  H82  1  0.88585000  0.29774000  0.25910000  1.0
  H  H83  1  0.94165000  0.22619000  0.18875000  1.0
  H  H84  1  0.95892000  0.27107000  0.08655000  1.0
  H  H85  1  0.99739000  0.26489000  0.04022000  1.0
  H  H86  1  0.07366000  0.28077000  0.03765000  1.0
  H  H87  1  0.07276000  0.31021000  0.13001000  1.0
  H  H88  1  0.32032000  0.09126000  0.87252000  1.0
  H  H89  1  0.38364000  0.05406000  0.85404000  1.0
  H  H90  1  0.35973000  0.06832000  0.96018000  1.0
  H  H91  1  0.43471000  0.02163000  0.88777000  1.0
  H  H92  1  0.26905000  0.20899000  0.94773000  1.0
  H  H93  1  0.19720000  0.09353000  0.95064000  1.0
  H  H94  1  0.13525000  0.13244000  0.97005000  1.0
  H  H95  1  0.14084000  0.20948000  0.98112000  1.0
  H  H96  1  0.36199000  0.16008000  0.90148000  1.0
  H  H97  1  0.36783000  0.21244000  0.86181000  1.0
  H  H98  1  0.30291000  0.24040000  0.83780000  1.0
  H  H99  1  0.22626000  0.16123000  0.89411000  1.0
  H  H100  1  0.27221000  0.12361000  0.99697000  1.0
  H  H101  1  0.25829000  0.07511000  0.03783000  1.0
  H  H102  1  0.25626000  0.99771000  0.03007000  1.0
  H  H103  1  0.28696000  0.01784000  0.93938000  1.0
  H  H104  1  0.99410000  0.76217000  0.10846000  1.0
  H  H105  1  0.94142000  0.70516000  0.11612000  1.0
  H  H106  1  0.08352000  0.69721000  0.16290000  1.0
  H  H107  1  0.95980000  0.64215000  0.14601000  1.0
  H  H108  1  0.15464000  0.78794000  0.08219000  1.0
  H  H109  1  0.11335000  0.86426000  0.15379000  1.0
  H  H110  1  0.16922000  0.91659000  0.14337000  1.0
  H  H111  1  0.22149000  0.90325000  0.10384000  1.0
  H  H112  1  0.02635000  0.78216000  0.17878000  1.0
  H  H113  1  0.03450000  0.79069000  0.23169000  1.0
  H  H114  1  0.10566000  0.79799000  0.25344000  1.0
  H  H115  1  0.16136000  0.78699000  0.16741000  1.0
  H  H116  1  0.07086000  0.70135000  0.08711000  1.0
  H  H117  1  0.05500000  0.69149000  0.03512000  1.0
  H  H118  1  0.04939000  0.75400000  0.00243000  1.0
  H  H119  1  0.07470000  0.83653000  0.07568000  1.0
  H  H120  1  0.72749000  0.06640000  0.92438000  1.0
  H  H121  1  0.65634000  0.09217000  0.91132000  1.0
  H  H122  1  0.68243000  0.93763000  0.92407000  1.0
  H  H123  1  0.59650000  0.04171000  0.90630000  1.0
  H  H124  1  0.81365000  0.94083000  0.98085000  1.0
  H  H125  1  0.85671000  0.98597000  0.89812000  1.0
  H  H126  1  0.93071000  0.96892000  0.91118000  1.0
  H  H127  1  0.94730000  0.93568000  0.95849000  1.0
  H  H128  1  0.71951000  0.98443000  0.87218000  1.0
  H  H129  1  0.71704000  0.94437000  0.82699000  1.0
  H  H130  1  0.76818000  0.88662000  0.81758000  1.0
  H  H131  1  0.82117000  0.90524000  0.90318000  1.0
  H  H132  1  0.71547000  0.97819000  0.98357000  1.0
  H  H133  1  0.71355000  0.01642000  0.03005000  1.0
  H  H134  1  0.76084000  0.07707000  0.03859000  1.0
  H  H135  1  0.82119000  0.05378000  0.95543000  1.0
  H  H136  1  0.95484000  0.59505000  0.66975000  1.0
  H  H137  1  0.10245000  0.43791000  0.68750000  1.0
  H  H138  1  0.06964000  0.42104000  0.71704000  1.0
  H  H139  1  0.96466000  0.60662000  0.70707000  1.0
  H  H140  1  0.60539000  0.10753000  0.40168000  1.0
  H  H141  1  0.44461000  0.99095000  0.47254000  1.0
  H  H142  1  0.42209000  0.04172000  0.46530000  1.0
  H  H143  1  0.60886000  0.12232000  0.43891000  1.0
  H  H144  1  0.04420000  0.45274000  0.10217000  1.0
  H  H145  1  0.01476000  0.62738000  0.19484000  1.0
  H  H146  1  0.06931000  0.62938000  0.18277000  1.0
  H  H147  1  0.98786000  0.45476000  0.10809000  1.0
  H  H148  1  0.42636000  0.03314000  0.97063000  1.0
  H  H149  1  0.59768000  0.93627000  0.89824000  1.0
  H  H150  1  0.60603000  0.92923000  0.93624000  1.0
  H  H151  1  0.40651000  0.98572000  0.95427000  1.0
  H  H152  1  0.33311000  0.11603000  0.47806000  1.0
  H  H153  1  0.20830000  0.25814000  0.54699000  1.0
  H  H154  1  0.25306000  0.25343000  0.57078000  1.0
  H  H155  1  0.28616000  0.12233000  0.45634000  1.0
  H  H156  1  0.13671000  0.83289000  0.43494000  1.0
  H  H157  1  0.05983000  0.86188000  0.57562000  1.0
  H  H158  1  0.01388000  0.85927000  0.55284000  1.0
  H  H159  1  0.18269000  0.82368000  0.45750000  1.0
  H  H160  1  0.89634000  0.01243000  0.49337000  1.0
  H  H161  1  0.84354000  0.84850000  0.58495000  1.0
  H  H162  1  0.89090000  0.83419000  0.56586000  1.0
  H  H163  1  0.89840000  0.04391000  0.52575000  1.0
  H  H164  1  0.86938000  0.23103000  0.48954000  1.0
  H  H165  1  0.08263000  0.21649000  0.52962000  1.0
  H  H166  1  0.08150000  0.25676000  0.50156000  1.0
  H  H167  1  0.87213000  0.18543000  0.51263000  1.0
  H  H168  1  0.84566000  0.11329000  0.98302000  1.0
  H  H169  1  0.83684000  0.16072000  0.12851000  1.0
  H  H170  1  0.83510000  0.21501000  0.11706000  1.0
  H  H171  1  0.79464000  0.13807000  0.98529000  1.0
  H  H172  1  0.20092000  0.28054000  0.95635000  1.0
  H  H173  1  0.14253000  0.29578000  0.10349000  1.0
  H  H174  1  0.12816000  0.34534000  0.08709000  1.0
  H  H175  1  0.24773000  0.26836000  0.97704000  1.0
  H  H176  1  0.21477000  0.80354000  0.05508000  1.0
  H  H177  1  0.30525000  0.94607000  0.97000000  1.0
  H  H178  1  0.25166000  0.94791000  0.95712000  1.0
  H  H179  1  0.25448000  0.82182000  0.08025000  1.0
  H  H180  1  0.88043000  0.93638000  0.01987000  1.0
  H  H181  1  0.07086000  0.82988000  0.99477000  1.0
  H  H182  1  0.08102000  0.86429000  0.02550000  1.0
  H  H183  1  0.86339000  0.88678000  0.00505000  1.0
  H  H184  1  0.22949000  0.27427000  0.71707000  1.0
  H  H185  1  0.19128000  0.19750000  0.85604000  1.0
  H  H186  1  0.21111000  0.25023000  0.86232000  1.0
  H  H187  1  0.22111000  0.21857000  0.71172000  1.0
  H  H188  1  0.19503000  0.76210000  0.22829000  1.0
  H  H189  1  0.16911000  0.88602000  0.34669000  1.0
  H  H190  1  0.19175000  0.93021000  0.32795000  1.0
  H  H191  1  0.20704000  0.80875000  0.20743000  1.0
  H  H192  1  0.84664000  0.82008000  0.71972000  1.0
  H  H193  1  0.82635000  0.83172000  0.87072000  1.0
  H  H194  1  0.86525000  0.87150000  0.86285000  1.0
  H  H195  1  0.83238000  0.76739000  0.73090000  1.0
  H  H196  1  0.77912000  0.24532000  0.34754000  1.0
  H  H197  1  0.92512000  0.19209000  0.23838000  1.0
  H  H198  1  0.87536000  0.19844000  0.22031000  1.0
  H  H199  1  0.82751000  0.23120000  0.36619000  1.0
  C  C200  1  0.19731000  0.22125000  0.58619000  1.0
  C  C201  1  0.16702000  0.25052000  0.59688000  1.0
  C  C202  1  0.17684000  0.17324000  0.62517000  1.0
  C  C203  1  0.20220000  0.18213000  0.60083000  1.0
  C  C204  1  0.14716000  0.20354000  0.63497000  1.0
  C  C205  1  0.04927000  0.21225000  0.64779000  1.0
  C  C206  1  0.16644000  0.34720000  0.61665000  1.0
  C  C207  1  0.08019000  0.26992000  0.69582000  1.0
  C  C208  1  0.08726000  0.26019000  0.72516000  1.0
  C  C209  1  0.12871000  0.25245000  0.73491000  1.0
  C  C210  1  0.01999000  0.33207000  0.63918000  1.0
  C  C211  1  0.15456000  0.26591000  0.68591000  1.0
  C  C212  1  0.16338000  0.25535000  0.71532000  1.0
  C  C213  1  0.99192000  0.36432000  0.64813000  1.0
  C  C214  1  0.07602000  0.36293000  0.66707000  1.0
  C  C215  1  0.04966000  0.39734000  0.67535000  1.0
  C  C216  1  0.00666000  0.39692000  0.66636000  1.0
  C  C217  1  0.08201000  0.34436000  0.58641000  1.0
  C  C218  1  0.07122000  0.35570000  0.55783000  1.0
  C  C219  1  0.06545000  0.32386000  0.53691000  1.0
  C  C220  1  0.06925000  0.28068000  0.54482000  1.0
  C  C221  1  0.07917000  0.27072000  0.57405000  1.0
  C  C222  1  0.16692000  0.89034000  0.44985000  1.0
  C  C223  1  0.20905000  0.90031000  0.44123000  1.0
  C  C224  1  0.15074000  0.96618000  0.44925000  1.0
  C  C225  1  0.13750000  0.92405000  0.45310000  1.0
  C  C226  1  0.19316000  0.97459000  0.44178000  1.0
  C  C227  1  0.27883000  0.01803000  0.38090000  1.0
  C  C228  1  0.33563000  0.90609000  0.46514000  1.0
  C  C229  1  0.30497000  0.88260000  0.39047000  1.0
  C  C230  1  0.30107000  0.85398000  0.36719000  1.0
  C  C231  1  0.26718000  0.85821000  0.34758000  1.0
  C  C232  1  0.35768000  0.96331000  0.38911000  1.0
  C  C233  1  0.24265000  0.91949000  0.37504000  1.0
  C  C234  1  0.23683000  0.89099000  0.35149000  1.0
  C  C235  1  0.40086000  0.96895000  0.38231000  1.0
  C  C236  1  0.36987000  0.98665000  0.43747000  1.0
  C  C237  1  0.41315000  0.99548000  0.43114000  1.0
  C  C238  1  0.42893000  0.98400000  0.40353000  1.0
  C  C239  1  0.27076000  0.97828000  0.48821000  1.0
  C  C240  1  0.26917000  0.00440000  0.51288000  1.0
  C  C241  1  0.27816000  0.04780000  0.51020000  1.0
  C  C242  1  0.28796000  0.06516000  0.48264000  1.0
  C  C243  1  0.29031000  0.03729000  0.45847000  1.0
  C  C244  1  0.90006000  0.85765000  0.61014000  1.0
  C  C245  1  0.92443000  0.82155000  0.61768000  1.0
  C  C246  1  0.91704000  0.88758000  0.65743000  1.0
  C  C247  1  0.89557000  0.89046000  0.63079000  1.0
  C  C248  1  0.94177000  0.85137000  0.66367000  1.0
  C  C249  1  0.03359000  0.82075000  0.68563000  1.0
  C  C250  1  0.91236000  0.72076000  0.61910000  1.0
  C  C251  1  0.98315000  0.75368000  0.71662000  1.0
  C  C252  1  0.96933000  0.75335000  0.74561000  1.0
  C  C253  1  0.92778000  0.76609000  0.75224000  1.0
  C  C254  1  0.05155000  0.70883000  0.65683000  1.0
  C  C255  1  0.91473000  0.77651000  0.70063000  1.0
  C  C256  1  0.89994000  0.77891000  0.72971000  1.0
  C  C257  1  0.07412000  0.67113000  0.66234000  1.0
  C  C258  1  0.98697000  0.67624000  0.67246000  1.0
  C  C259  1  0.00789000  0.63694000  0.67704000  1.0
  C  C260  1  0.05239000  0.63512000  0.67253000  1.0
  C  C261  1  0.00258000  0.72433000  0.59820000  1.0
  C  C262  1  0.01922000  0.72281000  0.56988000  1.0
  C  C263  1  0.03310000  0.76040000  0.55647000  1.0
  C  C264  1  0.03124000  0.79937000  0.57181000  1.0
  C  C265  1  0.01457000  0.79909000  0.60035000  1.0
  C  C266  1  0.88289000  0.17293000  0.46678000  1.0
  C  C267  1  0.84340000  0.15235000  0.46225000  1.0
  C  C268  1  0.90698000  0.14300000  0.42069000  1.0
  C  C269  1  0.91491000  0.16787000  0.44541000  1.0
  C  C270  1  0.86715000  0.12348000  0.41716000  1.0
  C  C271  1  0.80948000  0.03833000  0.39055000  1.0
  C  C272  1  0.75195000  0.18583000  0.44354000  1.0
  C  C273  1  0.74395000  0.10333000  0.37409000  1.0
  C  C274  1  0.73672000  0.11970000  0.34615000  1.0
  C  C275  1  0.75663000  0.15742000  0.33762000  1.0
  C  C276  1  0.72398000  0.02437000  0.43471000  1.0
  C  C277  1  0.78997000  0.16114000  0.38517000  1.0
  C  C278  1  0.78413000  0.17854000  0.35702000  1.0
  C  C279  1  0.68604000  0.00125000  0.43145000  1.0
  C  C280  1  0.68655000  0.08968000  0.42845000  1.0
  C  C281  1  0.64709000  0.06789000  0.42688000  1.0
  C  C282  1  0.64769000  0.02293000  0.42674000  1.0
  C  C283  1  0.75781000  0.07776000  0.49373000  1.0
  C  C284  1  0.76525000  0.06335000  0.52222000  1.0
  C  C285  1  0.80461000  0.04493000  0.52923000  1.0
  C  C286  1  0.83583000  0.03975000  0.50746000  1.0
  C  C287  1  0.82724000  0.05549000  0.47928000  1.0
  C  C288  1  0.89866000  0.18944000  0.12442000  1.0
  C  C289  1  0.91511000  0.23002000  0.13178000  1.0
  C  C290  1  0.96863000  0.15945000  0.13291000  1.0
  C  C291  1  0.92514000  0.15363000  0.12781000  1.0
  C  C292  1  0.98465000  0.20080000  0.13662000  1.0
  C  C293  1  0.02914000  0.24668000  0.19201000  1.0
  C  C294  1  0.90877000  0.34726000  0.13725000  1.0
  C  C295  1  0.93846000  0.33232000  0.19901000  1.0
  C  C296  1  0.91621000  0.33363000  0.22544000  1.0
  C  C297  1  0.90273000  0.29577000  0.23848000  1.0
  C  C298  1  0.02965000  0.35592000  0.18209000  1.0
  C  C299  1  0.93399000  0.25686000  0.19819000  1.0
  C  C300  1  0.91110000  0.25646000  0.22471000  1.0
  C  C301  1  0.04968000  0.39484000  0.18798000  1.0
  C  C302  1  0.00522000  0.38192000  0.13633000  1.0
  C  C303  1  0.02370000  0.42239000  0.14178000  1.0
  C  C304  1  0.04699000  0.42801000  0.16781000  1.0
  C  C305  1  0.99270000  0.27849000  0.08625000  1.0
  C  C306  1  0.01437000  0.27482000  0.05977000  1.0
  C  C307  1  0.05786000  0.28402000  0.05857000  1.0
  C  C308  1  0.07975000  0.29724000  0.08397000  1.0
  C  C309  1  0.05644000  0.30006000  0.11031000  1.0
  C  C310  1  0.20701000  0.21429000  0.96697000  1.0
  C  C311  1  0.24082000  0.19157000  0.95393000  1.0
  C  C312  1  0.16486000  0.14939000  0.96573000  1.0
  C  C313  1  0.16822000  0.19287000  0.97200000  1.0
  C  C314  1  0.20015000  0.12761000  0.95436000  1.0
  C  C315  1  0.25198000  0.05032000  0.89456000  1.0
  C  C316  1  0.34365000  0.18179000  0.95546000  1.0
  C  C317  1  0.33287000  0.17209000  0.89167000  1.0
  C  C318  1  0.33653000  0.20155000  0.86881000  1.0
  C  C319  1  0.29975000  0.21695000  0.85513000  1.0
  C  C320  1  0.34251000  0.07774000  0.88815000  1.0
  C  C321  1  0.25738000  0.17244000  0.88710000  1.0
  C  C322  1  0.25942000  0.20204000  0.86395000  1.0
  C  C323  1  0.37850000  0.05656000  0.87742000  1.0
  C  C324  1  0.36471000  0.06477000  0.93688000  1.0
  C  C325  1  0.40014000  0.04067000  0.92716000  1.0
  C  C326  1  0.40739000  0.03808000  0.89685000  1.0
  C  C327  1  0.27194000  0.08953000  0.99274000  1.0
  C  C328  1  0.26385000  0.06217000  0.01616000  1.0
  C  C329  1  0.26277000  0.01820000  0.01151000  1.0
  C  C330  1  0.27064000  0.00166000  0.98340000  1.0
  C  C331  1  0.27879000  0.03064000  0.96050000  1.0
  C  C332  1  0.19158000  0.84401000  0.09016000  1.0
  C  C333  1  0.15776000  0.81565000  0.09598000  1.0
  C  C334  1  0.16609000  0.88843000  0.12969000  1.0
  C  C335  1  0.19543000  0.88090000  0.10732000  1.0
  C  C336  1  0.13359000  0.85866000  0.13514000  1.0
  C  C337  1  0.03374000  0.85134000  0.14307000  1.0
  C  C338  1  0.14893000  0.71615000  0.10787000  1.0
  C  C339  1  0.05825000  0.78592000  0.18761000  1.0
  C  C340  1  0.06260000  0.79065000  0.21778000  1.0
  C  C341  1  0.10319000  0.79487000  0.22994000  1.0
  C  C342  1  0.00261000  0.73564000  0.12248000  1.0
  C  C343  1  0.13354000  0.78876000  0.18150000  1.0
  C  C344  1  0.13962000  0.79413000  0.21188000  1.0
  C  C345  1  0.97264000  0.70298000  0.12635000  1.0
  C  C346  1  0.05276000  0.69856000  0.15208000  1.0
  C  C347  1  0.02388000  0.66439000  0.15601000  1.0
  C  C348  1  0.98328000  0.66730000  0.14310000  1.0
  C  C349  1  0.06923000  0.72938000  0.07328000  1.0
  C  C350  1  0.05973000  0.72347000  0.04374000  1.0
  C  C351  1  0.05618000  0.75888000  0.02542000  1.0
  C  C352  1  0.06149000  0.80018000  0.03681000  1.0
  C  C353  1  0.07083000  0.80465000  0.06676000  1.0
  C  C354  1  0.88088000  0.93377000  0.97299000  1.0
  C  C355  1  0.83902000  0.94571000  0.96508000  1.0
  C  C356  1  0.90514000  0.96211000  0.92652000  1.0
  C  C357  1  0.91427000  0.94299000  0.95335000  1.0
  C  C358  1  0.86288000  0.97227000  0.91938000  1.0
  C  C359  1  0.79186000  0.03772000  0.88234000  1.0
  C  C360  1  0.75900000  0.89165000  0.94454000  1.0
  C  C361  1  0.74135000  0.95794000  0.87007000  1.0
  C  C362  1  0.74026000  0.93577000  0.84359000  1.0
  C  C363  1  0.76959000  0.90326000  0.83833000  1.0
  C  C364  1  0.70255000  0.04297000  0.92102000  1.0
  C  C365  1  0.79899000  0.91533000  0.88649000  1.0
  C  C366  1  0.80018000  0.89304000  0.85970000  1.0
  C  C367  1  0.66177000  0.05817000  0.91423000  1.0
  C  C368  1  0.67698000  0.97164000  0.92214000  1.0
  C  C369  1  0.63461000  0.98595000  0.91792000  1.0
  C  C370  1  0.62794000  0.02947000  0.91178000  1.0
  C  C371  1  0.73908000  0.00282000  0.98731000  1.0
  C  C372  1  0.73715000  0.02506000  0.01369000  1.0
  C  C373  1  0.76423000  0.05972000  0.01833000  1.0
  C  C374  1  0.79355000  0.07203000  0.99655000  1.0
  C  C375  1  0.79706000  0.04590000  0.97149000  1.0
  C  C376  1  0.98099000  0.59860000  0.68614000  1.0
  C  C377  1  0.00473000  0.55634000  0.68823000  1.0
  C  C378  1  0.01102000  0.53651000  0.71555000  1.0
  C  C379  1  0.03100000  0.49648000  0.71736000  1.0
  C  C380  1  0.06849000  0.43283000  0.69410000  1.0
  C  C381  1  0.04565000  0.47565000  0.69191000  1.0
  C  C382  1  0.01934000  0.53558000  0.66275000  1.0
  C  C383  1  0.04042000  0.49607000  0.66462000  1.0
  C  C384  1  0.60614000  0.09404000  0.42419000  1.0
  C  C385  1  0.56407000  0.07169000  0.43157000  1.0
  C  C386  1  0.52736000  0.07990000  0.41448000  1.0
  C  C387  1  0.48756000  0.06247000  0.42215000  1.0
  C  C388  1  0.44079000  0.01535000  0.45501000  1.0
  C  C389  1  0.48392000  0.03398000  0.44596000  1.0
  C  C390  1  0.55947000  0.04660000  0.45705000  1.0
  C  C391  1  0.52033000  0.02682000  0.46357000  1.0
  C  C392  1  0.01940000  0.45797000  0.11925000  1.0
  C  C393  1  0.02266000  0.50265000  0.13230000  1.0
  C  C394  1  0.05886000  0.52856000  0.12715000  1.0
  C  C395  1  0.06241000  0.56896000  0.14034000  1.0
  C  C396  1  0.03557000  0.62647000  0.17510000  1.0
  C  C397  1  0.03006000  0.58414000  0.15915000  1.0
  C  C398  1  0.98984000  0.51828000  0.15051000  1.0
  C  C399  1  0.99356000  0.55848000  0.16391000  1.0
  C  C400  1  0.42555000  0.01508000  0.94963000  1.0
  C  C401  1  0.47038000  0.00131000  0.94063000  1.0
  C  C402  1  0.50660000  0.01866000  0.95469000  1.0
  C  C403  1  0.54765000  0.00268000  0.94875000  1.0
  C  C404  1  0.59814000  0.95379000  0.91942000  1.0
  C  C405  1  0.55387000  0.97145000  0.92678000  1.0
  C  C406  1  0.47628000  0.96731000  0.92077000  1.0
  C  C407  1  0.51749000  0.95356000  0.91322000  1.0
  C  C408  1  0.29768000  0.11228000  0.47837000  1.0
  C  C409  1  0.27780000  0.14091000  0.50144000  1.0
  C  C410  1  0.30240000  0.15560000  0.52522000  1.0
  C  C411  1  0.28491000  0.18428000  0.54546000  1.0
  C  C412  1  0.22598000  0.23508000  0.56115000  1.0
  C  C413  1  0.24253000  0.19892000  0.54225000  1.0
  C  C414  1  0.23467000  0.15365000  0.49915000  1.0
  C  C415  1  0.21718000  0.18247000  0.51939000  1.0
  C  C416  1  0.15374000  0.84416000  0.45486000  1.0
  C  C417  1  0.12548000  0.83973000  0.48168000  1.0
  C  C418  1  0.08064000  0.83701000  0.47881000  1.0
  C  C419  1  0.05443000  0.83682000  0.50364000  1.0
  C  C420  1  0.04396000  0.84204000  0.55850000  1.0
  C  C421  1  0.07252000  0.83883000  0.53181000  1.0
  C  C422  1  0.14364000  0.84062000  0.50988000  1.0
  C  C423  1  0.11739000  0.83989000  0.53474000  1.0
  C  C424  1  0.87888000  0.01951000  0.51405000  1.0
  C  C425  1  0.87732000  0.97833000  0.53183000  1.0
  C  C426  1  0.91230000  0.96785000  0.54996000  1.0
  C  C427  1  0.91299000  0.92933000  0.56564000  1.0
  C  C428  1  0.87716000  0.85868000  0.58089000  1.0
  C  C429  1  0.87764000  0.90120000  0.56467000  1.0
  C  C430  1  0.84367000  0.94843000  0.52897000  1.0
  C  C431  1  0.84342000  0.91093000  0.54571000  1.0
  C  C432  1  0.88800000  0.20123000  0.49366000  1.0
  C  C433  1  0.93382000  0.21282000  0.50125000  1.0
  C  C434  1  0.95635000  0.18995000  0.52289000  1.0
  C  C435  1  0.99842000  0.20139000  0.53022000  1.0
  C  C436  1  0.06555000  0.24575000  0.52201000  1.0
  C  C437  1  0.01909000  0.23532000  0.51557000  1.0
  C  C438  1  0.95409000  0.24739000  0.48716000  1.0
  C  C439  1  0.99646000  0.25809000  0.49389000  1.0
  C  C440  1  0.81626000  0.11522000  0.99674000  1.0
  C  C441  1  0.82650000  0.13342000  0.02677000  1.0
  C  C442  1  0.86902000  0.13475000  0.03680000  1.0
  C  C443  1  0.87914000  0.15389000  0.06365000  1.0
  C  C444  1  0.85291000  0.18442000  0.11402000  1.0
  C  C445  1  0.84624000  0.16913000  0.08245000  1.0
  C  C446  1  0.79448000  0.15309000  0.04378000  1.0
  C  C447  1  0.80391000  0.16906000  0.07165000  1.0
  C  C448  1  0.21296000  0.26104000  0.97497000  1.0
  C  C449  1  0.19149000  0.27387000  0.00351000  1.0
  C  C450  1  0.16729000  0.31188000  0.00502000  1.0
  C  C451  1  0.14752000  0.32408000  0.03120000  1.0
  C  C452  1  0.12675000  0.31002000  0.08394000  1.0
  C  C453  1  0.15061000  0.29801000  0.05623000  1.0
  C  C454  1  0.19642000  0.24894000  0.02906000  1.0
  C  C455  1  0.17541000  0.26044000  0.05499000  1.0
  C  C456  1  0.22544000  0.83188000  0.06797000  1.0
  C  C457  1  0.23578000  0.86751000  0.04668000  1.0
  C  C458  1  0.20547000  0.87999000  0.02553000  1.0
  C  C459  1  0.21665000  0.90899000  0.00343000  1.0
  C  C460  1  0.27192000  0.95408000  0.97672000  1.0
  C  C461  1  0.25856000  0.92545000  0.00185000  1.0
  C  C462  1  0.27707000  0.88565000  0.04590000  1.0
  C  C463  1  0.28841000  0.91412000  0.02358000  1.0
  C  C464  1  0.88787000  0.91247000  0.00257000  1.0
  C  C465  1  0.93182000  0.89271000  0.00702000  1.0
  C  C466  1  0.96039000  0.90953000  0.02792000  1.0
  C  C467  1  0.00094000  0.89119000  0.03188000  1.0
  C  C468  1  0.05933000  0.83891000  0.01698000  1.0
  C  C469  1  0.01401000  0.85606000  0.01471000  1.0
  C  C470  1  0.94427000  0.85666000  0.99060000  1.0
  C  C471  1  0.98511000  0.83883000  0.99415000  1.0
  C  C472  1  0.20952000  0.24674000  0.72437000  1.0
  C  C473  1  0.21556000  0.23925000  0.75693000  1.0
  C  C474  1  0.22164000  0.27413000  0.77598000  1.0
  C  C475  1  0.22411000  0.26767000  0.80626000  1.0
  C  C476  1  0.21833000  0.21957000  0.85097000  1.0
  C  C477  1  0.22037000  0.22617000  0.81811000  1.0
  C  C478  1  0.21307000  0.19761000  0.76869000  1.0
  C  C479  1  0.21550000  0.19114000  0.79900000  1.0
  C  C480  1  0.18482000  0.79571000  0.22428000  1.0
  C  C481  1  0.18874000  0.82149000  0.25238000  1.0
  C  C482  1  0.19878000  0.86544000  0.25146000  1.0
  C  C483  1  0.20283000  0.88908000  0.27741000  1.0
  C  C484  1  0.19677000  0.89562000  0.33278000  1.0
  C  C485  1  0.19600000  0.86943000  0.30478000  1.0
  C  C486  1  0.18300000  0.80164000  0.27980000  1.0
  C  C487  1  0.18576000  0.82553000  0.30566000  1.0
  C  C488  1  0.85461000  0.79431000  0.73567000  1.0
  C  C489  1  0.84810000  0.81139000  0.76646000  1.0
  C  C490  1  0.86573000  0.85113000  0.77468000  1.0
  C  C491  1  0.86094000  0.86640000  0.80335000  1.0
  C  C492  1  0.83386000  0.85844000  0.85546000  1.0
  C  C493  1  0.83826000  0.84230000  0.82428000  1.0
  C  C494  1  0.82514000  0.78748000  0.78736000  1.0
  C  C495  1  0.82012000  0.80286000  0.81595000  1.0
  C  C496  1  0.80485000  0.22077000  0.34877000  1.0
  C  C497  1  0.82835000  0.21813000  0.31976000  1.0
  C  C498  1  0.80833000  0.23127000  0.29362000  1.0
  C  C499  1  0.83029000  0.22932000  0.26695000  1.0
  C  C500  1  0.89667000  0.21346000  0.23693000  1.0
  C  C501  1  0.87314000  0.21540000  0.26595000  1.0
  C  C502  1  0.87099000  0.20352000  0.31870000  1.0
  C  C503  1  0.89332000  0.20254000  0.29208000  1.0
  S  S504  1  0.04196000  0.17443000  0.66400000  1.0
  S  S505  1  0.18751000  0.37037000  0.59433000  1.0
  S  S506  1  0.29745000  0.03688000  0.35586000  1.0
  S  S507  1  0.37409000  0.90191000  0.48113000  1.0
  S  S508  1  0.04188000  0.84629000  0.71052000  1.0
  S  S509  1  0.89563000  0.70806000  0.59171000  1.0
  S  S510  1  0.81120000  0.02403000  0.36126000  1.0
  S  S511  1  0.75254000  0.22964000  0.43586000  1.0
  S  S512  1  0.03014000  0.22467000  0.21899000  1.0
  S  S513  1  0.87876000  0.37795000  0.14696000  1.0
  S  S514  1  0.25679000  0.01152000  0.87900000  1.0
  S  S515  1  0.36343000  0.22235000  0.95310000  1.0
  S  S516  1  0.02482000  0.88566000  0.16229000  1.0
  S  S517  1  0.17064000  0.69427000  0.08524000  1.0
  S  S518  1  0.79278000  0.04681000  0.85208000  1.0
  S  S519  1  0.76904000  0.84809000  0.93990000  1.0
  N  N520  1  0.06160000  0.33130000  0.64872000  1.0
  N  N521  1  0.14207000  0.24203000  0.62090000  1.0
  N  N522  1  0.05441000  0.24600000  0.63306000  1.0
  N  N523  1  0.14851000  0.32692000  0.63712000  1.0
  N  N524  1  0.11335000  0.27168000  0.67621000  1.0
  N  N525  1  0.08728000  0.30231000  0.59425000  1.0
  N  N526  1  0.34222000  0.97010000  0.41690000  1.0
  N  N527  1  0.22185000  0.94196000  0.43750000  1.0
  N  N528  1  0.26091000  0.00237000  0.40319000  1.0
  N  N529  1  0.30079000  0.90845000  0.45125000  1.0
  N  N530  1  0.27671000  0.91586000  0.39382000  1.0
  N  N531  1  0.28238000  0.99426000  0.46140000  1.0
  N  N532  1  0.00841000  0.71144000  0.66206000  1.0
  N  N533  1  0.94488000  0.81810000  0.64417000  1.0
  N  N534  1  0.02730000  0.79812000  0.66321000  1.0
  N  N535  1  0.92618000  0.73171000  0.64391000  1.0
  N  N536  1  0.95639000  0.76592000  0.69435000  1.0
  N  N537  1  0.99903000  0.76237000  0.61295000  1.0
  N  N538  1  0.72457000  0.06805000  0.43176000  1.0
  N  N539  1  0.83537000  0.12866000  0.43756000  1.0
  N  N540  1  0.80917000  0.05011000  0.41695000  1.0
  N  N541  1  0.75056000  0.14714000  0.45141000  1.0
  N  N542  1  0.77028000  0.12375000  0.39377000  1.0
  N  N543  1  0.78891000  0.07459000  0.47272000  1.0
  N  N544  1  0.00741000  0.34945000  0.15655000  1.0
  N  N545  1  0.95779000  0.23557000  0.13825000  1.0
  N  N546  1  0.02971000  0.26623000  0.16783000  1.0
  N  N547  1  0.93489000  0.31998000  0.12743000  1.0
  N  N548  1  0.94813000  0.29424000  0.18546000  1.0
  N  N549  1  0.01362000  0.29060000  0.11125000  1.0
  N  N550  1  0.33588000  0.08232000  0.91765000  1.0
  N  N551  1  0.23785000  0.14851000  0.94855000  1.0
  N  N552  1  0.24657000  0.08503000  0.90817000  1.0
  N  N553  1  0.32639000  0.14557000  0.95855000  1.0
  N  N554  1  0.29356000  0.15812000  0.90108000  1.0
  N  N555  1  0.27842000  0.07403000  0.96500000  1.0
  N  N556  1  0.04240000  0.73330000  0.13505000  1.0
  N  N557  1  0.12939000  0.82238000  0.11846000  1.0
  N  N558  1  0.04049000  0.82089000  0.12557000  1.0
  N  N559  1  0.13043000  0.73522000  0.12864000  1.0
  N  N560  1  0.09326000  0.78602000  0.16955000  1.0
  N  N561  1  0.07572000  0.76954000  0.08460000  1.0
  N  N562  1  0.71073000  0.99991000  0.92306000  1.0
  N  N563  1  0.82997000  0.96355000  0.93833000  1.0
  N  N564  1  0.79193000  0.03075000  0.90953000  1.0
  N  N565  1  0.74923000  0.93016000  0.94962000  1.0
  N  N566  1  0.77032000  0.94794000  0.89168000  1.0
  N  N567  1  0.76941000  0.01248000  0.96665000  1.0
  F  F568  1  0.99758000  0.55577000  0.74059000  1.0
  F  F569  1  0.03623000  0.47824000  0.74412000  1.0
  F  F570  1  0.05550000  0.47754000  0.63976000  1.0
  F  F571  1  0.01358000  0.55396000  0.63608000  1.0
  F  F572  1  0.52956000  0.10637000  0.39091000  1.0
  F  F573  1  0.45241000  0.07404000  0.40648000  1.0
  F  F574  1  0.51766000  0.00200000  0.48794000  1.0
  F  F575  1  0.59264000  0.04176000  0.47601000  1.0
  F  F576  1  0.09124000  0.51441000  0.10979000  1.0
  F  F577  1  0.09788000  0.59305000  0.13518000  1.0
  F  F578  1  0.96167000  0.57211000  0.18188000  1.0
  F  F579  1  0.95454000  0.49402000  0.15585000  1.0
  F  F580  1  0.50217000  0.05000000  0.97511000  1.0
  F  F581  1  0.58114000  0.01738000  0.96488000  1.0
  F  F582  1  0.52170000  0.92145000  0.89334000  1.0
  F  F583  1  0.44193000  0.94714000  0.90877000  1.0
  F  F584  1  0.34363000  0.14257000  0.52863000  1.0
  F  F585  1  0.30977000  0.19867000  0.56780000  1.0
  F  F586  1  0.17591000  0.19549000  0.51615000  1.0
  F  F587  1  0.20985000  0.13888000  0.47690000  1.0
  F  F588  1  0.06211000  0.83620000  0.45191000  1.0
  F  F589  1  0.01122000  0.83526000  0.50019000  1.0
  F  F590  1  0.13572000  0.84125000  0.56170000  1.0
  F  F591  1  0.18680000  0.84336000  0.51327000  1.0
  F  F592  1  0.94672000  0.99439000  0.55173000  1.0
  F  F593  1  0.94881000  0.91931000  0.58107000  1.0
  F  F594  1  0.81020000  0.88317000  0.54254000  1.0
  F  F595  1  0.81138000  0.95467000  0.50949000  1.0
  F  F596  1  0.93759000  0.15645000  0.53691000  1.0
  F  F597  1  0.01920000  0.17892000  0.55136000  1.0
  F  F598  1  0.01562000  0.29022000  0.47873000  1.0
  F  F599  1  0.93307000  0.27005000  0.46621000  1.0
  F  F600  1  0.90128000  0.11864000  0.02013000  1.0
  F  F601  1  0.92128000  0.15849000  0.06998000  1.0
  F  F602  1  0.77138000  0.18485000  0.08824000  1.0
  F  F603  1  0.75370000  0.15615000  0.03356000  1.0
  F  F604  1  0.16269000  0.33736000  0.98111000  1.0
  F  F605  1  0.12392000  0.36064000  0.03186000  1.0
  F  F606  1  0.17915000  0.23472000  0.07884000  1.0
  F  F607  1  0.22123000  0.21317000  0.02889000  1.0
  F  F608  1  0.16546000  0.86291000  0.02576000  1.0
  F  F609  1  0.18685000  0.92021000  0.98315000  1.0
  F  F610  1  0.32876000  0.93043000  0.02297000  1.0
  F  F611  1  0.30691000  0.87489000  0.06626000  1.0
  F  F612  1  0.94922000  0.94399000  0.04441000  1.0
  F  F613  1  0.02775000  0.90831000  0.05218000  1.0
  F  F614  1  0.99670000  0.80523000  0.97702000  1.0
  F  F615  1  0.91708000  0.83937000  0.97060000  1.0
  F  F616  1  0.22388000  0.31467000  0.76528000  1.0
  F  F617  1  0.22922000  0.30214000  0.82408000  1.0
  F  F618  1  0.21190000  0.15075000  0.80982000  1.0
  F  F619  1  0.20680000  0.16336000  0.75085000  1.0
  F  F620  1  0.20451000  0.88553000  0.22537000  1.0
  F  F621  1  0.21276000  0.93139000  0.27577000  1.0
  F  F622  1  0.17858000  0.80578000  0.33171000  1.0
  F  F623  1  0.17355000  0.75922000  0.28146000  1.0
  F  F624  1  0.88813000  0.87483000  0.75497000  1.0
  F  F625  1  0.87847000  0.90474000  0.81075000  1.0
  F  F626  1  0.79763000  0.77908000  0.83555000  1.0
  F  F627  1  0.80794000  0.74889000  0.78021000  1.0
  F  F628  1  0.76736000  0.24599000  0.29388000  1.0
  F  F629  1  0.81001000  0.24178000  0.24205000  1.0
  F  F630  1  0.93468000  0.18896000  0.29186000  1.0
  F  F631  1  0.89110000  0.19046000  0.34353000  1.0
