# generated using pymatgen
data_ZnH28(C9N)4
_symmetry_space_group_name_H-M   'P 1'
_cell_length_a   26.17820000
_cell_length_b   26.17820000
_cell_length_c   41.90080000
_cell_angle_alpha   90.00000000
_cell_angle_beta   90.00000000
_cell_angle_gamma   90.00000000
_symmetry_Int_Tables_number   1
_chemical_formula_structural   ZnH28(C9N)4
_chemical_formula_sum   'Zn8 H224 C288 N32'
_cell_volume   28714.54094308
_cell_formula_units_Z   8
loop_
 _symmetry_equiv_pos_site_id
 _symmetry_equiv_pos_as_xyz
  1  'x, y, z'
loop_
 _atom_site_type_symbol
 _atom_site_label
 _atom_site_symmetry_multiplicity
 _atom_site_fract_x
 _atom_site_fract_y
 _atom_site_fract_z
 _atom_site_occupancy
  Zn  Zn0  1  0.18772000  0.21610000  0.32706000  1.0
  Zn  Zn1  1  0.28895000  0.68790000  0.82689000  1.0
  Zn  Zn2  1  0.81532000  0.79383000  0.32798000  1.0
  Zn  Zn3  1  0.71026000  0.31412000  0.82775000  1.0
  Zn  Zn4  1  0.68787000  0.28997000  0.17536000  1.0
  Zn  Zn5  1  0.21519000  0.18798000  0.67506000  1.0
  Zn  Zn6  1  0.31525000  0.71183000  0.17470000  1.0
  Zn  Zn7  1  0.79468000  0.81388000  0.67566000  1.0
  H  H8  1  0.25562000  0.16764000  0.36994000  1.0
  H  H9  1  0.27666000  0.17587000  0.42673000  1.0
  H  H10  1  0.16263000  0.29945000  0.37378000  1.0
  H  H11  1  0.17944000  0.30965000  0.43067000  1.0
  H  H12  1  0.15257000  0.15279000  0.27591000  1.0
  H  H13  1  0.08744000  0.08600000  0.27241000  1.0
  H  H14  1  0.15033000  0.14598000  0.37673000  1.0
  H  H15  1  0.08524000  0.07920000  0.37565000  1.0
  H  H16  1  0.24716000  0.13792000  0.29184000  1.0
  H  H17  1  0.25707000  0.29601000  0.31086000  1.0
  H  H18  1  0.34070000  0.30076000  0.28516000  1.0
  H  H19  1  0.32994000  0.13904000  0.26449000  1.0
  H  H20  1  0.09409000  0.24785000  0.35429000  1.0
  H  H21  1  0.01231000  0.27375000  0.33182000  1.0
  H  H22  1  0.08665000  0.29010000  0.24009000  1.0
  H  H23  1  0.16723000  0.26611000  0.26526000  1.0
  H  H24  1  0.33837000  0.75481000  0.86986000  1.0
  H  H25  1  0.33034000  0.77585000  0.92664000  1.0
  H  H26  1  0.20501000  0.66403000  0.87345000  1.0
  H  H27  1  0.19472000  0.68120000  0.93034000  1.0
  H  H28  1  0.35232000  0.65269000  0.77577000  1.0
  H  H29  1  0.41894000  0.58738000  0.77228000  1.0
  H  H30  1  0.35886000  0.65013000  0.87659000  1.0
  H  H31  1  0.42553000  0.58498000  0.87552000  1.0
  H  H32  1  0.36739000  0.74758000  0.79208000  1.0
  H  H33  1  0.20903000  0.75706000  0.81029000  1.0
  H  H34  1  0.20442000  0.84074000  0.78465000  1.0
  H  H35  1  0.36643000  0.83045000  0.76482000  1.0
  H  H36  1  0.25657000  0.59450000  0.85430000  1.0
  H  H37  1  0.23082000  0.51263000  0.83185000  1.0
  H  H38  1  0.21516000  0.58668000  0.73998000  1.0
  H  H39  1  0.23911000  0.66730000  0.76510000  1.0
  H  H40  1  0.74554000  0.83852000  0.37139000  1.0
  H  H41  1  0.72532000  0.82828000  0.42814000  1.0
  H  H42  1  0.84481000  0.71129000  0.37408000  1.0
  H  H43  1  0.82855000  0.69901000  0.43090000  1.0
  H  H44  1  0.85027000  0.85651000  0.27702000  1.0
  H  H45  1  0.90877000  0.92904000  0.27347000  1.0
  H  H46  1  0.84818000  0.86653000  0.37762000  1.0
  H  H47  1  0.90597000  0.93939000  0.37658000  1.0
  H  H48  1  0.75390000  0.86936000  0.29215000  1.0
  H  H49  1  0.74755000  0.71164000  0.31295000  1.0
  H  H50  1  0.66399000  0.70435000  0.28740000  1.0
  H  H51  1  0.67121000  0.86565000  0.26491000  1.0
  H  H52  1  0.91101000  0.76771000  0.35439000  1.0
  H  H53  1  0.99293000  0.74201000  0.33185000  1.0
  H  H54  1  0.91698000  0.71806000  0.24128000  1.0
  H  H55  1  0.83644000  0.74224000  0.26651000  1.0
  H  H56  1  0.66473000  0.24416000  0.87084000  1.0
  H  H57  1  0.67451000  0.22348000  0.92759000  1.0
  H  H58  1  0.79257000  0.34260000  0.87411000  1.0
  H  H59  1  0.80438000  0.32594000  0.93090000  1.0
  H  H60  1  0.64863000  0.35090000  0.77671000  1.0
  H  H61  1  0.57625000  0.40964000  0.77330000  1.0
  H  H62  1  0.63672000  0.34595000  0.87720000  1.0
  H  H63  1  0.56411000  0.40397000  0.87628000  1.0
  H  H64  1  0.63580000  0.25475000  0.78941000  1.0
  H  H65  1  0.79169000  0.24494000  0.81460000  1.0
  H  H66  1  0.79914000  0.16152000  0.78888000  1.0
  H  H67  1  0.63981000  0.17230000  0.76191000  1.0
  H  H68  1  0.73653000  0.40946000  0.85466000  1.0
  H  H69  1  0.76333000  0.49135000  0.83255000  1.0
  H  H70  1  0.78840000  0.41585000  0.74194000  1.0
  H  H71  1  0.76320000  0.33532000  0.76677000  1.0
  H  H72  1  0.75520000  0.33833000  0.13207000  1.0
  H  H73  1  0.77601000  0.32929000  0.07529000  1.0
  H  H74  1  0.66337000  0.20564000  0.12933000  1.0
  H  H75  1  0.68005000  0.19452000  0.07249000  1.0
  H  H76  1  0.65297000  0.35383000  0.22625000  1.0
  H  H77  1  0.58780000  0.42062000  0.22955000  1.0
  H  H78  1  0.65046000  0.35962000  0.12541000  1.0
  H  H79  1  0.58539000  0.42638000  0.12629000  1.0
  H  H80  1  0.74732000  0.36826000  0.21050000  1.0
  H  H81  1  0.75725000  0.21016000  0.19150000  1.0
  H  H82  1  0.84098000  0.20548000  0.21704000  1.0
  H  H83  1  0.83019000  0.36720000  0.23774000  1.0
  H  H84  1  0.59433000  0.25794000  0.14810000  1.0
  H  H85  1  0.51243000  0.23229000  0.17055000  1.0
  H  H86  1  0.58638000  0.21697000  0.26247000  1.0
  H  H87  1  0.66705000  0.24072000  0.23734000  1.0
  H  H88  1  0.16627000  0.25523000  0.63198000  1.0
  H  H89  1  0.17459000  0.27624000  0.57518000  1.0
  H  H90  1  0.29877000  0.16318000  0.62841000  1.0
  H  H91  1  0.30910000  0.18001000  0.57153000  1.0
  H  H92  1  0.15206000  0.15323000  0.72635000  1.0
  H  H93  1  0.08540000  0.08804000  0.73015000  1.0
  H  H94  1  0.14494000  0.15014000  0.62555000  1.0
  H  H95  1  0.07832000  0.08490000  0.62693000  1.0
  H  H96  1  0.13710000  0.24717000  0.71055000  1.0
  H  H97  1  0.29491000  0.25799000  0.69079000  1.0
  H  H98  1  0.29944000  0.34169000  0.71645000  1.0
  H  H99  1  0.13806000  0.32992000  0.73790000  1.0
  H  H100  1  0.24744000  0.09435000  0.64784000  1.0
  H  H101  1  0.27323000  0.01256000  0.67039000  1.0
  H  H102  1  0.28848000  0.08685000  0.76221000  1.0
  H  H103  1  0.26469000  0.16742000  0.73697000  1.0
  H  H104  1  0.24392000  0.66806000  0.13197000  1.0
  H  H105  1  0.22330000  0.67762000  0.07521000  1.0
  H  H106  1  0.34604000  0.79292000  0.12784000  1.0
  H  H107  1  0.32947000  0.80438000  0.07101000  1.0
  H  H108  1  0.35194000  0.64988000  0.22552000  1.0
  H  H109  1  0.41048000  0.57731000  0.22868000  1.0
  H  H110  1  0.34626000  0.63830000  0.12503000  1.0
  H  H111  1  0.40409000  0.56552000  0.12569000  1.0
  H  H112  1  0.25544000  0.63691000  0.21223000  1.0
  H  H113  1  0.24621000  0.79339000  0.18839000  1.0
  H  H114  1  0.16276000  0.80054000  0.21413000  1.0
  H  H115  1  0.17295000  0.64057000  0.23968000  1.0
  H  H116  1  0.41142000  0.73712000  0.14857000  1.0
  H  H117  1  0.49318000  0.76286000  0.17138000  1.0
  H  H118  1  0.41608000  0.78874000  0.26137000  1.0
  H  H119  1  0.33579000  0.76455000  0.23587000  1.0
  H  H120  1  0.83981000  0.74336000  0.63277000  1.0
  H  H121  1  0.83025000  0.72266000  0.57603000  1.0
  H  H122  1  0.71266000  0.84266000  0.62915000  1.0
  H  H123  1  0.70101000  0.82586000  0.57235000  1.0
  H  H124  1  0.85642000  0.85068000  0.72656000  1.0
  H  H125  1  0.92866000  0.90962000  0.72980000  1.0
  H  H126  1  0.86811000  0.84534000  0.62607000  1.0
  H  H127  1  0.94062000  0.90348000  0.62682000  1.0
  H  H128  1  0.86962000  0.75410000  0.71323000  1.0
  H  H129  1  0.71297000  0.74539000  0.68978000  1.0
  H  H130  1  0.70568000  0.66203000  0.71556000  1.0
  H  H131  1  0.86582000  0.67166000  0.74077000  1.0
  H  H132  1  0.76880000  0.90934000  0.64875000  1.0
  H  H133  1  0.74257000  0.99140000  0.67089000  1.0
  H  H134  1  0.71722000  0.91606000  0.76151000  1.0
  H  H135  1  0.74196000  0.83539000  0.73668000  1.0
  H  H136  1  0.99502000  0.08646000  0.36689000  1.0
  H  H137  1  0.92093000  0.02661000  0.36737000  1.0
  H  H138  1  0.92820000  0.01546000  0.27480000  1.0
  H  H139  1  0.00179000  0.07551000  0.27423000  1.0
  H  H140  1  0.08535000  0.97506000  0.32812000  1.0
  H  H141  1  0.01085000  0.91463000  0.32866000  1.0
  H  H142  1  0.42919000  0.50169000  0.77405000  1.0
  H  H143  1  0.48910000  0.42796000  0.77461000  1.0
  H  H144  1  0.59001000  0.51022000  0.82861000  1.0
  H  H145  1  0.52979000  0.58490000  0.82806000  1.0
  H  H146  1  0.41809000  0.49482000  0.86672000  1.0
  H  H147  1  0.47768000  0.42055000  0.86717000  1.0
  H  H148  1  0.50185000  0.42993000  0.22753000  1.0
  H  H149  1  0.42811000  0.48987000  0.22705000  1.0
  H  H150  1  0.51069000  0.59127000  0.17363000  1.0
  H  H151  1  0.58534000  0.53103000  0.17410000  1.0
  H  H152  1  0.49540000  0.41970000  0.13484000  1.0
  H  H153  1  0.42117000  0.47929000  0.13446000  1.0
  H  H154  1  0.07516000  0.00248000  0.72874000  1.0
  H  H155  1  0.01556000  0.92852000  0.72846000  1.0
  H  H156  1  0.91437000  0.00983000  0.67413000  1.0
  H  H157  1  0.97429000  0.08475000  0.67439000  1.0
  H  H158  1  0.08639000  0.99472000  0.63611000  1.0
  H  H159  1  0.02710000  0.92020000  0.63594000  1.0
  H  H160  1  0.32374000  0.22559000  0.46678000  1.0
  H  H161  1  0.33062000  0.21968000  0.52606000  1.0
  H  H162  1  0.22473000  0.32396000  0.53546000  1.0
  H  H163  1  0.21920000  0.33121000  0.47617000  1.0
  H  H164  1  0.17440000  0.18156000  0.47115000  1.0
  H  H165  1  0.18095000  0.17463000  0.53060000  1.0
  H  H166  1  0.28301000  0.82342000  0.96688000  1.0
  H  H167  1  0.28861000  0.82958000  0.02622000  1.0
  H  H168  1  0.17994000  0.72814000  0.03480000  1.0
  H  H169  1  0.17325000  0.72313000  0.97545000  1.0
  H  H170  1  0.32101000  0.67236000  0.97102000  1.0
  H  H171  1  0.32747000  0.67822000  0.03052000  1.0
  H  H172  1  0.67595000  0.78278000  0.52796000  1.0
  H  H173  1  0.68147000  0.77858000  0.46852000  1.0
  H  H174  1  0.83061000  0.82390000  0.47218000  1.0
  H  H175  1  0.82530000  0.82886000  0.53175000  1.0
  H  H176  1  0.78251000  0.67899000  0.53509000  1.0
  H  H177  1  0.78709000  0.67379000  0.47566000  1.0
  H  H178  1  0.82880000  0.28511000  0.97578000  1.0
  H  H179  1  0.82300000  0.28000000  0.03518000  1.0
  H  H180  1  0.67293000  0.32155000  0.03146000  1.0
  H  H181  1  0.67842000  0.32760000  0.97194000  1.0
  H  H182  1  0.72475000  0.17884000  0.96775000  1.0
  H  H183  1  0.72020000  0.17251000  0.02711000  1.0
  H  H184  1  0.51520000  0.18449000  0.28219000  1.0
  H  H185  1  0.42649000  0.18864000  0.30383000  1.0
  H  H186  1  0.39288000  0.30785000  0.24348000  1.0
  H  H187  1  0.48227000  0.30561000  0.22343000  1.0
  H  H188  1  0.46080000  0.16123000  0.19459000  1.0
  H  H189  1  0.37110000  0.16482000  0.21559000  1.0
  H  H190  1  0.34114000  0.87154000  0.71577000  1.0
  H  H191  1  0.34470000  0.96124000  0.69473000  1.0
  H  H192  1  0.19993000  0.98234000  0.72293000  1.0
  H  H193  1  0.19770000  0.89296000  0.74299000  1.0
  H  H194  1  0.31611000  0.92694000  0.80386000  1.0
  H  H195  1  0.32026000  0.01564000  0.78222000  1.0
  H  H196  1  0.63252000  0.83613000  0.21562000  1.0
  H  H197  1  0.54323000  0.83787000  0.19385000  1.0
  H  H198  1  0.52195000  0.69522000  0.22596000  1.0
  H  H199  1  0.61093000  0.69467000  0.24668000  1.0
  H  H200  1  0.57557000  0.81714000  0.30394000  1.0
  H  H201  1  0.48727000  0.81942000  0.28161000  1.0
  H  H202  1  0.68510000  0.07544000  0.80256000  1.0
  H  H203  1  0.68306000  0.98707000  0.78030000  1.0
  H  H204  1  0.66923000  0.04278000  0.69225000  1.0
  H  H205  1  0.67078000  0.13216000  0.71386000  1.0
  H  H206  1  0.81050000  0.10964000  0.74745000  1.0
  H  H207  1  0.81020000  0.02055000  0.72682000  1.0
  H  H208  1  0.01539000  0.32265000  0.22037000  1.0
  H  H209  1  0.92676000  0.31832000  0.19859000  1.0
  H  H210  1  0.89354000  0.19830000  0.25839000  1.0
  H  H211  1  0.98283000  0.20076000  0.27855000  1.0
  H  H212  1  0.96056000  0.34480000  0.30796000  1.0
  H  H213  1  0.87095000  0.34099000  0.28681000  1.0
  H  H214  1  0.16423000  0.37095000  0.78675000  1.0
  H  H215  1  0.16034000  0.46050000  0.80798000  1.0
  H  H216  1  0.30422000  0.48307000  0.77842000  1.0
  H  H217  1  0.30677000  0.39382000  0.75813000  1.0
  H  H218  1  0.18646000  0.42698000  0.69855000  1.0
  H  H219  1  0.18203000  0.51555000  0.72043000  1.0
  H  H220  1  0.07620000  0.68664000  0.19965000  1.0
  H  H221  1  0.98793000  0.68424000  0.22208000  1.0
  H  H222  1  0.04411000  0.66898000  0.30991000  1.0
  H  H223  1  0.13336000  0.67092000  0.28814000  1.0
  H  H224  1  0.11062000  0.81119000  0.25544000  1.0
  H  H225  1  0.02165000  0.81053000  0.27625000  1.0
  H  H226  1  0.82180000  0.48694000  0.72287000  1.0
  H  H227  1  0.81957000  0.57536000  0.70069000  1.0
  H  H228  1  0.69510000  0.60966000  0.75666000  1.0
  H  H229  1  0.69557000  0.52055000  0.77716000  1.0
  H  H230  1  0.83716000  0.54240000  0.81085000  1.0
  H  H231  1  0.83547000  0.63185000  0.78930000  1.0
  C  C232  1  0.24050000  0.19943000  0.38347000  1.0
  C  C233  1  0.25261000  0.20451000  0.41571000  1.0
  C  C234  1  0.18787000  0.27286000  0.38560000  1.0
  C  C235  1  0.19849000  0.27913000  0.41804000  1.0
  C  C236  1  0.13877000  0.13491000  0.29753000  1.0
  C  C237  1  0.10043000  0.09800000  0.29572000  1.0
  C  C238  1  0.13779000  0.13116000  0.35400000  1.0
  C  C239  1  0.09953000  0.09415000  0.35328000  1.0
  C  C240  1  0.26704000  0.17378000  0.28887000  1.0
  C  C241  1  0.27285000  0.26234000  0.29958000  1.0
  C  C242  1  0.32049000  0.26480000  0.28465000  1.0
  C  C243  1  0.31432000  0.17459000  0.27336000  1.0
  C  C244  1  0.09284000  0.26158000  0.32997000  1.0
  C  C245  1  0.04600000  0.27551000  0.31685000  1.0
  C  C246  1  0.08717000  0.28468000  0.26562000  1.0
  C  C247  1  0.13367000  0.27141000  0.27995000  1.0
  C  C248  1  0.07785000  0.07950000  0.32393000  1.0
  C  C249  1  0.23109000  0.24444000  0.43375000  1.0
  C  C250  1  0.04201000  0.28579000  0.28401000  1.0
  C  C251  1  0.34179000  0.22066000  0.27070000  1.0
  C  C252  1  0.30625000  0.74026000  0.88333000  1.0
  C  C253  1  0.30126000  0.75241000  0.91557000  1.0
  C  C254  1  0.23192000  0.68887000  0.88532000  1.0
  C  C255  1  0.22564000  0.69967000  0.91774000  1.0
  C  C256  1  0.37011000  0.63879000  0.79739000  1.0
  C  C257  1  0.40693000  0.60036000  0.79559000  1.0
  C  C258  1  0.37372000  0.63766000  0.85386000  1.0
  C  C259  1  0.41066000  0.59933000  0.85314000  1.0
  C  C260  1  0.33153000  0.76738000  0.78894000  1.0
  C  C261  1  0.24281000  0.77295000  0.79920000  1.0
  C  C262  1  0.24044000  0.82062000  0.78431000  1.0
  C  C263  1  0.33080000  0.81472000  0.77349000  1.0
  C  C264  1  0.24306000  0.59316000  0.82993000  1.0
  C  C265  1  0.22919000  0.54627000  0.81684000  1.0
  C  C266  1  0.22041000  0.58727000  0.76553000  1.0
  C  C267  1  0.23366000  0.63381000  0.77982000  1.0
  C  C268  1  0.42532000  0.57768000  0.82379000  1.0
  C  C269  1  0.26082000  0.73165000  0.93351000  1.0
  C  C270  1  0.21913000  0.54217000  0.78396000  1.0
  C  C271  1  0.28470000  0.84209000  0.77060000  1.0
  C  C272  1  0.76223000  0.80723000  0.38465000  1.0
  C  C273  1  0.75054000  0.80094000  0.41686000  1.0
  C  C274  1  0.81834000  0.73636000  0.38613000  1.0
  C  C275  1  0.80806000  0.72886000  0.41851000  1.0
  C  C276  1  0.86043000  0.87711000  0.29848000  1.0
  C  C277  1  0.89392000  0.91843000  0.29663000  1.0
  C  C278  1  0.85895000  0.88265000  0.35488000  1.0
  C  C279  1  0.89230000  0.92416000  0.35415000  1.0
  C  C280  1  0.73484000  0.83299000  0.28962000  1.0
  C  C281  1  0.73100000  0.74463000  0.30133000  1.0
  C  C282  1  0.68339000  0.74072000  0.28648000  1.0
  C  C283  1  0.68759000  0.83071000  0.27420000  1.0
  C  C284  1  0.91218000  0.75278000  0.33034000  1.0
  C  C285  1  0.95898000  0.73881000  0.31721000  1.0
  C  C286  1  0.91691000  0.72536000  0.26663000  1.0
  C  C287  1  0.87049000  0.73883000  0.28098000  1.0
  C  C288  1  0.91062000  0.94263000  0.32474000  1.0
  C  C289  1  0.77391000  0.76162000  0.43452000  1.0
  C  C290  1  0.96242000  0.72610000  0.28467000  1.0
  C  C291  1  0.66114000  0.78400000  0.27204000  1.0
  C  C292  1  0.69603000  0.26057000  0.88423000  1.0
  C  C293  1  0.70205000  0.24863000  0.91643000  1.0
  C  C294  1  0.76723000  0.31623000  0.88604000  1.0
  C  C295  1  0.77447000  0.30572000  0.91840000  1.0
  C  C296  1  0.62766000  0.36049000  0.79814000  1.0
  C  C297  1  0.58645000  0.39411000  0.79636000  1.0
  C  C298  1  0.62107000  0.35740000  0.85446000  1.0
  C  C299  1  0.57967000  0.39090000  0.85380000  1.0
  C  C300  1  0.67192000  0.23499000  0.78782000  1.0
  C  C301  1  0.75925000  0.22920000  0.80199000  1.0
  C  C302  1  0.76327000  0.18170000  0.78703000  1.0
  C  C303  1  0.67437000  0.18787000  0.77223000  1.0
  C  C304  1  0.75191000  0.41070000  0.83072000  1.0
  C  C305  1  0.76653000  0.45748000  0.81784000  1.0
  C  C306  1  0.78059000  0.41567000  0.76723000  1.0
  C  C307  1  0.76653000  0.36926000  0.78134000  1.0
  C  C308  1  0.56176000  0.41007000  0.82447000  1.0
  C  C309  1  0.74138000  0.27167000  0.93424000  1.0
  C  C310  1  0.77977000  0.46107000  0.78539000  1.0
  C  C311  1  0.72066000  0.16050000  0.77128000  1.0
  C  C312  1  0.74032000  0.30616000  0.11879000  1.0
  C  C313  1  0.75232000  0.30060000  0.08657000  1.0
  C  C314  1  0.68833000  0.23222000  0.11728000  1.0
  C  C315  1  0.69889000  0.22543000  0.08487000  1.0
  C  C316  1  0.63913000  0.37151000  0.20458000  1.0
  C  C317  1  0.60077000  0.40840000  0.20627000  1.0
  C  C318  1  0.63800000  0.37468000  0.14810000  1.0
  C  C319  1  0.59972000  0.41166000  0.14871000  1.0
  C  C320  1  0.76722000  0.33241000  0.21346000  1.0
  C  C321  1  0.77305000  0.24384000  0.20275000  1.0
  C  C322  1  0.82075000  0.24143000  0.21759000  1.0
  C  C323  1  0.81456000  0.33164000  0.22888000  1.0
  C  C324  1  0.59295000  0.24452000  0.17249000  1.0
  C  C325  1  0.54605000  0.23073000  0.18558000  1.0
  C  C326  1  0.58699000  0.22213000  0.23692000  1.0
  C  C327  1  0.63356000  0.23526000  0.22262000  1.0
  C  C328  1  0.57808000  0.42655000  0.17802000  1.0
  C  C329  1  0.73107000  0.26015000  0.06887000  1.0
  C  C330  1  0.54192000  0.22078000  0.21846000  1.0
  C  C331  1  0.84207000  0.28559000  0.23152000  1.0
  C  C332  1  0.19821000  0.24029000  0.61851000  1.0
  C  C333  1  0.20335000  0.25239000  0.58627000  1.0
  C  C334  1  0.27203000  0.18819000  0.61653000  1.0
  C  C335  1  0.27837000  0.19883000  0.58409000  1.0
  C  C336  1  0.13412000  0.13924000  0.70480000  1.0
  C  C337  1  0.09730000  0.10085000  0.70678000  1.0
  C  C338  1  0.13020000  0.13778000  0.64834000  1.0
  C  C339  1  0.09329000  0.09943000  0.64923000  1.0
  C  C340  1  0.17288000  0.26724000  0.71335000  1.0
  C  C341  1  0.26128000  0.27358000  0.70222000  1.0
  C  C342  1  0.26362000  0.32124000  0.71713000  1.0
  C  C343  1  0.17360000  0.31453000  0.72885000  1.0
  C  C344  1  0.26091000  0.09310000  0.67221000  1.0
  C  C345  1  0.27475000  0.04625000  0.68538000  1.0
  C  C346  1  0.28331000  0.08736000  0.73665000  1.0
  C  C347  1  0.27017000  0.13388000  0.72229000  1.0
  C  C348  1  0.07880000  0.07797000  0.67867000  1.0
  C  C349  1  0.24353000  0.23118000  0.56832000  1.0
  C  C350  1  0.28466000  0.04221000  0.71827000  1.0
  C  C351  1  0.21953000  0.34228000  0.73131000  1.0
  C  C352  1  0.26114000  0.69872000  0.11839000  1.0
  C  C353  1  0.24926000  0.70460000  0.08617000  1.0
  C  C354  1  0.31885000  0.76823000  0.11611000  1.0
  C  C355  1  0.30842000  0.77528000  0.08372000  1.0
  C  C356  1  0.36133000  0.62895000  0.20404000  1.0
  C  C357  1  0.39482000  0.58763000  0.20568000  1.0
  C  C358  1  0.35785000  0.62255000  0.14771000  1.0
  C  C359  1  0.39122000  0.58105000  0.14823000  1.0
  C  C360  1  0.23578000  0.67306000  0.21410000  1.0
  C  C361  1  0.23032000  0.76071000  0.20069000  1.0
  C  C362  1  0.18281000  0.76456000  0.21566000  1.0
  C  C363  1  0.18865000  0.67531000  0.22967000  1.0
  C  C364  1  0.41234000  0.75244000  0.17252000  1.0
  C  C365  1  0.45904000  0.76638000  0.18582000  1.0
  C  C366  1  0.41637000  0.78088000  0.23609000  1.0
  C  C367  1  0.37007000  0.76747000  0.22157000  1.0
  C  C368  1  0.41054000  0.56301000  0.17749000  1.0
  C  C369  1  0.27335000  0.74298000  0.06810000  1.0
  C  C370  1  0.46214000  0.77948000  0.21831000  1.0
  C  C371  1  0.16144000  0.72166000  0.23102000  1.0
  C  C372  1  0.80865000  0.75991000  0.61931000  1.0
  C  C373  1  0.80274000  0.74794000  0.58710000  1.0
  C  C374  1  0.73783000  0.81604000  0.61732000  1.0
  C  C375  1  0.73069000  0.80546000  0.58495000  1.0
  C  C376  1  0.87733000  0.86022000  0.70510000  1.0
  C  C377  1  0.91847000  0.89394000  0.70678000  1.0
  C  C378  1  0.88380000  0.85691000  0.64877000  1.0
  C  C379  1  0.92513000  0.89048000  0.64933000  1.0
  C  C380  1  0.83341000  0.73459000  0.71523000  1.0
  C  C381  1  0.74566000  0.72942000  0.70203000  1.0
  C  C382  1  0.74173000  0.68194000  0.71703000  1.0
  C  C383  1  0.83108000  0.68749000  0.73084000  1.0
  C  C384  1  0.75348000  0.91067000  0.67270000  1.0
  C  C385  1  0.73920000  0.95755000  0.68560000  1.0
  C  C386  1  0.72496000  0.91583000  0.73621000  1.0
  C  C387  1  0.73876000  0.86933000  0.72209000  1.0
  C  C388  1  0.94303000  0.90985000  0.67862000  1.0
  C  C389  1  0.76364000  0.77118000  0.56920000  1.0
  C  C390  1  0.72594000  0.96122000  0.71805000  1.0
  C  C391  1  0.78466000  0.66042000  0.73227000  1.0
  C  C392  1  0.03121000  0.04472000  0.32324000  1.0
  C  C393  1  0.99294000  0.05426000  0.35062000  1.0
  C  C394  1  0.95256000  0.02160000  0.35093000  1.0
  C  C395  1  0.95347000  0.98186000  0.32383000  1.0
  C  C396  1  0.95722000  0.01445000  0.29328000  1.0
  C  C397  1  0.99764000  0.04722000  0.29296000  1.0
  C  C398  1  0.04614000  0.98834000  0.32643000  1.0
  C  C399  1  0.00584000  0.95571000  0.32672000  1.0
  C  C400  1  0.45998000  0.53095000  0.82310000  1.0
  C  C401  1  0.45743000  0.49743000  0.79280000  1.0
  C  C402  1  0.49010000  0.45693000  0.79312000  1.0
  C  C403  1  0.52264000  0.45304000  0.82368000  1.0
  C  C404  1  0.54892000  0.50533000  0.82662000  1.0
  C  C405  1  0.51640000  0.54573000  0.82633000  1.0
  C  C406  1  0.45031000  0.49267000  0.85046000  1.0
  C  C407  1  0.48285000  0.45219000  0.85076000  1.0
  C  C408  1  0.53135000  0.46120000  0.17866000  1.0
  C  C409  1  0.49766000  0.45835000  0.20888000  1.0
  C  C410  1  0.45718000  0.49102000  0.20860000  1.0
  C  C411  1  0.45346000  0.52386000  0.17816000  1.0
  C  C412  1  0.50578000  0.55017000  0.17545000  1.0
  C  C413  1  0.54616000  0.51764000  0.17569000  1.0
  C  C414  1  0.49323000  0.45180000  0.15118000  1.0
  C  C415  1  0.45275000  0.48435000  0.15093000  1.0
  C  C416  1  0.04431000  0.03113000  0.67956000  1.0
  C  C417  1  0.04696000  0.99792000  0.71000000  1.0
  C  C418  1  0.01446000  0.95730000  0.70983000  1.0
  C  C419  1  0.98197000  0.95297000  0.67927000  1.0
  C  C420  1  0.95548000  0.00512000  0.67612000  1.0
  C  C421  1  0.98783000  0.04565000  0.67625000  1.0
  C  C422  1  0.05416000  0.99261000  0.65236000  1.0
  C  C423  1  0.02179000  0.95200000  0.65222000  1.0
  C  C424  1  0.23698000  0.24435000  0.46992000  1.0
  C  C425  1  0.29049000  0.22928000  0.48209000  1.0
  C  C426  1  0.29409000  0.22571000  0.51446000  1.0
  C  C427  1  0.24368000  0.23726000  0.53215000  1.0
  C  C428  1  0.22862000  0.29083000  0.52007000  1.0
  C  C429  1  0.22525000  0.29463000  0.48770000  1.0
  C  C430  1  0.20083000  0.20485000  0.48485000  1.0
  C  C431  1  0.20432000  0.20116000  0.51703000  1.0
  C  C432  1  0.26081000  0.73742000  0.96968000  1.0
  C  C433  1  0.27785000  0.79022000  0.98206000  1.0
  C  C434  1  0.28121000  0.79344000  0.01446000  1.0
  C  C435  1  0.26742000  0.74343000  0.03194000  1.0
  C  C436  1  0.21342000  0.73065000  0.01959000  1.0
  C  C437  1  0.20988000  0.72761000  0.98719000  1.0
  C  C438  1  0.29863000  0.69961000  0.98469000  1.0
  C  C439  1  0.30208000  0.70274000  0.01689000  1.0
  C  C440  1  0.76308000  0.76573000  0.53302000  1.0
  C  C441  1  0.71221000  0.77740000  0.51591000  1.0
  C  C442  1  0.71512000  0.77484000  0.48347000  1.0
  C  C443  1  0.76851000  0.76065000  0.47070000  1.0
  C  C444  1  0.80465000  0.79997000  0.48580000  1.0
  C  C445  1  0.80182000  0.80261000  0.51804000  1.0
  C  C446  1  0.77828000  0.71264000  0.52019000  1.0
  C  C447  1  0.78103000  0.70991000  0.48774000  1.0
  C  C448  1  0.74210000  0.26594000  0.97041000  1.0
  C  C449  1  0.79259000  0.27862000  0.98769000  1.0
  C  C450  1  0.78958000  0.27551000  0.02010000  1.0
  C  C451  1  0.73651000  0.25976000  0.03268000  1.0
  C  C452  1  0.69948000  0.29841000  0.01774000  1.0
  C  C453  1  0.70240000  0.30163000  0.98553000  1.0
  C  C454  1  0.72816000  0.21232000  0.98289000  1.0
  C  C455  1  0.72535000  0.20900000  0.01530000  1.0
  C  C456  1  0.48871000  0.21849000  0.23336000  1.0
  C  C457  1  0.48417000  0.20028000  0.26821000  1.0
  C  C458  1  0.43566000  0.20183000  0.27993000  1.0
  C  C459  1  0.39529000  0.22094000  0.25605000  1.0
  C  C460  1  0.41540000  0.27315000  0.24465000  1.0
  C  C461  1  0.46388000  0.27180000  0.23315000  1.0
  C  C462  1  0.45055000  0.18456000  0.21503000  1.0
  C  C463  1  0.40199000  0.18596000  0.22673000  1.0
  C  C464  1  0.28446000  0.89560000  0.75595000  1.0
  C  C465  1  0.31977000  0.90238000  0.72679000  1.0
  C  C466  1  0.32115000  0.95094000  0.71507000  1.0
  C  C467  1  0.28692000  0.98902000  0.73323000  1.0
  C  C468  1  0.23368000  0.96404000  0.73279000  1.0
  C  C469  1  0.23234000  0.91557000  0.74430000  1.0
  C  C470  1  0.30319000  0.93605000  0.77990000  1.0
  C  C471  1  0.30473000  0.98456000  0.76817000  1.0
  C  C472  1  0.60787000  0.78229000  0.25715000  1.0
  C  C473  1  0.60153000  0.81544000  0.22698000  1.0
  C  C474  1  0.55322000  0.81585000  0.21490000  1.0
  C  C475  1  0.51490000  0.78284000  0.23372000  1.0
  C  C476  1  0.54001000  0.72970000  0.23497000  1.0
  C  C477  1  0.58826000  0.72931000  0.24685000  1.0
  C  C478  1  0.56694000  0.80259000  0.28027000  1.0
  C  C479  1  0.51864000  0.80314000  0.26817000  1.0
  C  C480  1  0.72245000  0.10724000  0.75640000  1.0
  C  C481  1  0.70078000  0.06657000  0.77922000  1.0
  C  C482  1  0.70039000  0.01824000  0.76719000  1.0
  C  C483  1  0.72223000  0.01418000  0.73313000  1.0
  C  C484  1  0.69038000  0.05268000  0.71366000  1.0
  C  C485  1  0.69064000  0.10105000  0.72567000  1.0
  C  C486  1  0.77571000  0.08718000  0.74707000  1.0
  C  C487  1  0.77549000  0.03888000  0.73525000  1.0
  C  C488  1  0.98886000  0.28802000  0.26902000  1.0
  C  C489  1  0.98438000  0.30657000  0.23423000  1.0
  C  C490  1  0.93591000  0.30493000  0.22244000  1.0
  C  C491  1  0.89554000  0.28536000  0.24619000  1.0
  C  C492  1  0.91587000  0.23313000  0.25740000  1.0
  C  C493  1  0.96429000  0.23459000  0.26897000  1.0
  C  C494  1  0.95048000  0.32158000  0.28743000  1.0
  C  C495  1  0.90198000  0.32007000  0.27566000  1.0
  C  C496  1  0.21967000  0.39571000  0.74607000  1.0
  C  C497  1  0.18506000  0.40203000  0.77559000  1.0
  C  C498  1  0.18351000  0.45051000  0.78742000  1.0
  C  C499  1  0.21694000  0.48899000  0.76899000  1.0
  C  C500  1  0.27040000  0.46451000  0.76885000  1.0
  C  C501  1  0.27190000  0.41611000  0.75723000  1.0
  C  C502  1  0.19995000  0.43611000  0.72239000  1.0
  C  C503  1  0.19826000  0.48454000  0.73423000  1.0
  C  C504  1  0.10822000  0.72327000  0.24598000  1.0
  C  C505  1  0.06745000  0.70194000  0.22311000  1.0
  C  C506  1  0.01918000  0.70136000  0.23523000  1.0
  C  C507  1  0.01529000  0.72266000  0.26943000  1.0
  C  C508  1  0.05389000  0.69051000  0.28862000  1.0
  C  C509  1  0.10220000  0.69098000  0.27653000  1.0
  C  C510  1  0.08819000  0.77638000  0.25567000  1.0
  C  C511  1  0.03996000  0.77596000  0.26758000  1.0
  C  C512  1  0.78342000  0.51402000  0.77029000  1.0
  C  C513  1  0.80472000  0.51811000  0.73611000  1.0
  C  C514  1  0.80422000  0.56647000  0.72412000  1.0
  C  C515  1  0.78299000  0.60712000  0.74711000  1.0
  C  C516  1  0.72985000  0.58715000  0.75677000  1.0
  C  C517  1  0.73018000  0.53882000  0.76852000  1.0
  C  C518  1  0.81566000  0.55241000  0.78960000  1.0
  C  C519  1  0.81531000  0.60081000  0.77763000  1.0
  N  N520  1  0.20736000  0.23235000  0.36936000  1.0
  N  N521  1  0.15555000  0.15175000  0.32637000  1.0
  N  N522  1  0.24719000  0.21737000  0.30141000  1.0
  N  N523  1  0.13539000  0.25911000  0.31145000  1.0
  N  N524  1  0.27283000  0.70768000  0.86917000  1.0
  N  N525  1  0.35323000  0.65555000  0.82623000  1.0
  N  N526  1  0.28782000  0.74738000  0.80122000  1.0
  N  N527  1  0.24577000  0.63563000  0.81135000  1.0
  N  N528  1  0.79685000  0.77621000  0.37025000  1.0
  N  N529  1  0.84398000  0.85985000  0.32729000  1.0
  N  N530  1  0.75570000  0.79019000  0.30259000  1.0
  N  N531  1  0.86920000  0.75306000  0.31216000  1.0
  N  N532  1  0.72733000  0.29513000  0.87001000  1.0
  N  N533  1  0.64435000  0.34315000  0.82688000  1.0
  N  N534  1  0.71413000  0.25479000  0.80212000  1.0
  N  N535  1  0.75160000  0.36788000  0.81240000  1.0
  N  N536  1  0.70749000  0.27322000  0.13317000  1.0
  N  N537  1  0.65584000  0.35437000  0.17579000  1.0
  N  N538  1  0.74733000  0.28879000  0.20098000  1.0
  N  N539  1  0.63542000  0.24721000  0.19107000  1.0
  N  N540  1  0.23133000  0.20744000  0.63270000  1.0
  N  N541  1  0.15085000  0.15581000  0.67589000  1.0
  N  N542  1  0.21645000  0.24761000  0.70062000  1.0
  N  N543  1  0.25820000  0.13564000  0.69074000  1.0
  N  N544  1  0.29660000  0.72924000  0.13242000  1.0
  N  N545  1  0.34390000  0.64581000  0.17536000  1.0
  N  N546  1  0.25576000  0.71552000  0.20020000  1.0
  N  N547  1  0.36912000  0.75266000  0.19048000  1.0
  N  N548  1  0.77751000  0.79471000  0.63345000  1.0
  N  N549  1  0.86060000  0.84277000  0.67640000  1.0
  N  N550  1  0.79094000  0.75468000  0.70140000  1.0
  N  N551  1  0.75356000  0.86784000  0.69102000  1.0
