# generated using pymatgen
data_Zn2H2C5(NO2)5
_symmetry_space_group_name_H-M   'P 1'
_cell_length_a   14.91670000
_cell_length_b   17.02574825
_cell_length_c   17.02604108
_cell_angle_alpha   80.20126640
_cell_angle_beta   71.54956089
_cell_angle_gamma   71.55059020
_symmetry_Int_Tables_number   1
_chemical_formula_structural   Zn2H2C5(NO2)5
_chemical_formula_sum   'Zn8 H8 C20 N20 O40'
_cell_volume   3879.18255930
_cell_formula_units_Z   4
loop_
 _symmetry_equiv_pos_site_id
 _symmetry_equiv_pos_as_xyz
  1  'x, y, z'
loop_
 _atom_site_type_symbol
 _atom_site_label
 _atom_site_symmetry_multiplicity
 _atom_site_fract_x
 _atom_site_fract_y
 _atom_site_fract_z
 _atom_site_occupancy
  C  C0  1  0.35984000  0.81675000  0.48875000  1.0
  C  C1  1  0.57216000  0.94199000  0.35031000  1.0
  C  C2  1  0.59568000  0.63691000  0.32015000  1.0
  C  C3  1  0.61618000  0.80000000  0.55484000  1.0
  C  C4  1  0.41492000  0.06358000  0.61258000  1.0
  C  C5  1  0.37270000  0.33989500  0.01189500  1.0
  C  C6  1  0.16036000  0.47833000  0.88665000  1.0
  C  C7  1  0.13686000  0.50849000  0.19173000  1.0
  C  C8  1  0.11636000  0.27380000  0.02864000  1.0
  C  C9  1  0.31762000  0.21607000  0.76507000  1.0
  C  C10  1  0.87270000  0.24443000  0.10735000  1.0
  C  C11  1  0.66036000  0.11919000  0.24579000  1.0
  C  C12  1  0.63686000  0.42427000  0.27595000  1.0
  C  C13  1  0.61636000  0.26118000  0.04126000  1.0
  C  C14  1  0.81762000  0.99758000  0.98354000  1.0
  C  C15  1  0.85982000  0.72128500  0.58420500  1.0
  C  C16  1  0.07216000  0.58285000  0.70945000  1.0
  C  C17  1  0.09566000  0.55269000  0.40437000  1.0
  C  C18  1  0.11618000  0.78738000  0.56746000  1.0
  C  C19  1  0.91492000  0.84509000  0.83105000  1.0
  H  H20  1  0.55836000  0.00997000  0.55221000  1.0
  H  H21  1  0.48416000  0.73899000  0.30379000  1.0
  H  H22  1  0.17416000  0.27643000  0.81867000  1.0
  H  H23  1  0.24838000  0.52486000  0.08966000  1.0
  H  H24  1  0.67416000  0.05121000  0.04389000  1.0
  H  H25  1  0.74838000  0.32219000  0.29231000  1.0
  H  H26  1  0.05836000  0.78475000  0.77743000  1.0
  H  H27  1  0.98414000  0.53632000  0.50644000  1.0
  N  N28  1  0.19312000  0.82526000  0.54790000  1.0
  N  N29  1  0.27592000  0.78878000  0.50434000  1.0
  N  N30  1  0.45662000  0.32430000  0.03986000  1.0
  N  N31  1  0.53942000  0.28075000  0.00335000  1.0
  N  N32  1  0.95662000  0.27240000  0.09176000  1.0
  N  N33  1  0.03942000  0.23590000  0.04822000  1.0
  N  N34  1  0.77592000  0.73686000  0.55626000  1.0
  N  N35  1  0.69312000  0.78043000  0.59275000  1.0
  N  N36  1  0.59448000  0.51022000  0.28730000  1.0
  N  N37  1  0.63806000  0.55094000  0.30882000  1.0
  N  N38  1  0.13806000  0.54134000  0.31842000  1.0
  N  N39  1  0.09448000  0.51982000  0.27770000  1.0
  N  N40  1  0.35018000  0.12287000  0.66867000  1.0
  N  N41  1  0.38236000  0.15997000  0.70577000  1.0
  N  N42  1  0.85018000  0.90121000  0.89033000  1.0
  N  N43  1  0.88236000  0.93831000  0.92743000  1.0
  N  N44  1  0.61548000  0.06502000  0.30682000  1.0
  N  N45  1  0.61704000  0.99616000  0.28928000  1.0
  N  N46  1  0.11548000  0.53936000  0.83248000  1.0
  N  N47  1  0.11704000  0.52182000  0.76362000  1.0
  O  O48  1  0.51702000  0.97007000  0.42279000  1.0
  O  O49  1  0.59214000  0.86417000  0.33421000  1.0
  O  O50  1  0.44350000  0.77056000  0.44628000  1.0
  O  O51  1  0.35408000  0.88290000  0.52150000  1.0
  O  O52  1  0.63558000  0.67451000  0.35615000  1.0
  O  O53  1  0.51460000  0.67724000  0.29872000  1.0
  O  O54  1  0.53796000  0.86201000  0.58041000  1.0
  O  O55  1  0.63294000  0.76440000  0.48692000  1.0
  O  O56  1  0.37816000  0.01638000  0.58558000  1.0
  O  O57  1  0.51070000  0.05279000  0.59163000  1.0
  O  O58  1  0.21552000  0.40585000  0.85857000  1.0
  O  O59  1  0.14040000  0.49443000  0.96447000  1.0
  O  O60  1  0.28904000  0.38238000  0.05806000  1.0
  O  O61  1  0.37846000  0.30714000  0.94574000  1.0
  O  O62  1  0.09696000  0.47249000  0.15413000  1.0
  O  O63  1  0.21794000  0.52993000  0.15141000  1.0
  O  O64  1  0.19456000  0.24823000  0.96663000  1.0
  O  O65  1  0.09958000  0.34172000  0.06424000  1.0
  O  O66  1  0.35438000  0.24306000  0.81226000  1.0
  O  O67  1  0.22184000  0.23701000  0.77585000  1.0
  O  O68  1  0.71550000  0.09111000  0.17331000  1.0
  O  O69  1  0.64040000  0.19701000  0.26189000  1.0
  O  O70  1  0.78904000  0.29060000  0.14984000  1.0
  O  O71  1  0.87844000  0.17828000  0.07460000  1.0
  O  O72  1  0.59696000  0.38667000  0.23995000  1.0
  O  O73  1  0.71794000  0.38392000  0.29740000  1.0
  O  O74  1  0.69456000  0.19915000  0.01571000  1.0
  O  O75  1  0.59958000  0.29678000  0.10918000  1.0
  O  O76  1  0.85438000  0.04480000  0.01052000  1.0
  O  O77  1  0.72182000  0.00839000  0.00447000  1.0
  O  O78  1  0.01702000  0.65533000  0.73753000  1.0
  O  O79  1  0.09214000  0.56675000  0.63163000  1.0
  O  O80  1  0.94350000  0.67880000  0.53804000  1.0
  O  O81  1  0.85408000  0.75404000  0.65036000  1.0
  O  O82  1  0.13556000  0.58867000  0.44199000  1.0
  O  O83  1  0.01460000  0.53123000  0.44471000  1.0
  O  O84  1  0.03796000  0.81293000  0.62949000  1.0
  O  O85  1  0.13294000  0.71946000  0.53186000  1.0
  O  O86  1  0.87814000  0.81812000  0.78384000  1.0
  O  O87  1  0.01070000  0.82417000  0.82025000  1.0
  Zn  Zn88  1  0.45054000  0.92730000  0.52338000  1.0
  Zn  Zn89  1  0.57110000  0.77402000  0.40730000  1.0
  Zn  Zn90  1  0.28200000  0.30526000  0.90134000  1.0
  Zn  Zn91  1  0.16144000  0.42135000  0.05463000  1.0
  Zn  Zn92  1  0.78200000  0.13386000  0.07274000  1.0
  Zn  Zn93  1  0.66144000  0.28716000  0.18880000  1.0
  Zn  Zn94  1  0.95054000  0.75590000  0.69478000  1.0
  Zn  Zn95  1  0.07108000  0.63983000  0.54147000  1.0
