# generated using pymatgen
data_Co3H30C28(NO2)8
_symmetry_space_group_name_H-M   'P 1'
_cell_length_a   20.57100000
_cell_length_b   25.81930000
_cell_length_c   25.81930000
_cell_angle_alpha   90.00000000
_cell_angle_beta   90.00000000
_cell_angle_gamma   90.00000000
_symmetry_Int_Tables_number   1
_chemical_formula_structural   Co3H30C28(NO2)8
_chemical_formula_sum   'Co24 H240 C224 N64 O128'
_cell_volume   13713.37434997
_cell_formula_units_Z   8
loop_
 _symmetry_equiv_pos_site_id
 _symmetry_equiv_pos_as_xyz
  1  'x, y, z'
loop_
 _atom_site_type_symbol
 _atom_site_label
 _atom_site_symmetry_multiplicity
 _atom_site_fract_x
 _atom_site_fract_y
 _atom_site_fract_z
 _atom_site_occupancy
  C  C0  1  0.23048000  0.58637000  0.27198000  1.0
  C  C1  1  0.12314000  0.54307000  0.43854000  1.0
  C  C2  1  0.28374000  0.65071000  0.38471000  1.0
  C  C3  1  0.28278000  0.50608000  0.38037000  1.0
  C  C4  1  0.46528000  0.61538000  0.39876000  1.0
  C  C5  1  0.57188000  0.58064000  0.24108000  1.0
  C  C6  1  0.44164000  0.50736000  0.30709000  1.0
  C  C7  1  0.42728000  0.66350000  0.27127000  1.0
  C  C8  1  0.73608000  0.83794000  0.08957000  1.0
  C  C9  1  0.63180000  0.66477000  0.07373000  1.0
  C  C10  1  0.79278000  0.74087000  0.16581000  1.0
  C  C11  1  0.78716000  0.71751000  0.02270000  1.0
  C  C12  1  0.97558000  0.71625000  0.12561000  1.0
  C  C13  1  0.08292000  0.85825000  0.05891000  1.0
  C  C14  1  0.94256000  0.79170000  0.00731000  1.0
  C  C15  1  0.94098000  0.85349000  0.15466000  1.0
  C  C16  1  0.21686000  0.00598000  0.31849000  1.0
  C  C17  1  0.14018000  0.01546000  0.14465000  1.0
  C  C18  1  0.25874000  0.92081000  0.21869000  1.0
  C  C19  1  0.27782000  0.08367000  0.21036000  1.0
  C  C20  1  0.46926000  0.98051000  0.21151000  1.0
  C  C21  1  0.52116000  0.00223000  0.39068000  1.0
  C  C22  1  0.41896000  0.07525000  0.31398000  1.0
  C  C23  1  0.40662000  0.91434000  0.32053000  1.0
  C  C24  1  0.72510000  0.76681000  0.50419000  1.0
  C  C25  1  0.66896000  0.93173000  0.57282000  1.0
  C  C26  1  0.75684000  0.88915000  0.44401000  1.0
  C  C27  1  0.81322000  0.85058000  0.59603000  1.0
  C  C28  1  0.97974000  0.86261000  0.46787000  1.0
  C  C29  1  0.99170000  0.68771000  0.40091000  1.0
  C  C30  1  0.93776000  0.74854000  0.53464000  1.0
  C  C31  1  0.88108000  0.79483000  0.38067000  1.0
  C  C32  1  0.71764000  0.48519000  0.71498000  1.0
  C  C33  1  0.59292000  0.53024000  0.86089000  1.0
  C  C34  1  0.74400000  0.59231000  0.80809000  1.0
  C  C35  1  0.72822000  0.43169000  0.83956000  1.0
  C  C36  1  0.93928000  0.50560000  0.86169000  1.0
  C  C37  1  0.05404000  0.51009000  0.70198000  1.0
  C  C38  1  0.91080000  0.41920000  0.77005000  1.0
  C  C39  1  0.90618000  0.58042000  0.74111000  1.0
  C  C40  1  0.22256000  0.38742000  0.98541000  1.0
  C  C41  1  0.11456000  0.23207000  0.02364000  1.0
  C  C42  1  0.25414000  0.29585000  0.08800000  1.0
  C  C43  1  0.24868000  0.26394000  0.92713000  1.0
  C  C44  1  0.45474000  0.24764000  0.99629000  1.0
  C  C45  1  0.56170000  0.41170000  0.00090000  1.0
  C  C46  1  0.41822000  0.35290000  0.91621000  1.0
  C  C47  1  0.42540000  0.35837000  0.08015000  1.0
  C  C48  1  0.73130000  0.11065000  0.88320000  1.0
  C  C49  1  0.62900000  0.07812000  0.72320000  1.0
  C  C50  1  0.76722000  0.00993000  0.78445000  1.0
  C  C51  1  0.75722000  0.17364000  0.76479000  1.0
  C  C52  1  0.96084000  0.09907000  0.74304000  1.0
  C  C53  1  0.07452000  0.09694000  0.90189000  1.0
  C  C54  1  0.92874000  0.18012000  0.85044000  1.0
  C  C55  1  0.93264000  0.01809000  0.85734000  1.0
  C  C56  1  0.23022000  0.20533000  0.60721000  1.0
  C  C57  1  0.10484000  0.35536000  0.60161000  1.0
  C  C58  1  0.23446000  0.30552000  0.51263000  1.0
  C  C59  1  0.26018000  0.32580000  0.67342000  1.0
  C  C60  1  0.45186000  0.34884000  0.59345000  1.0
  C  C61  1  0.54934000  0.18125000  0.54605000  1.0
  C  C62  1  0.42416000  0.23324000  0.65930000  1.0
  C  C63  1  0.41476000  0.25981000  0.49543000  1.0
  C  C64  1  0.62172000  0.58115000  0.20040000  1.0
  C  C65  1  0.74582000  0.74473000  0.20940000  1.0
  C  C66  1  0.63086000  0.72077000  0.19059000  1.0
  C  C67  1  0.59726000  0.67523000  0.18565000  1.0
  C  C68  1  0.69678000  0.65696000  0.20376000  1.0
  C  C69  1  0.13802000  0.88469000  0.03241000  1.0
  C  C70  1  0.25014000  0.86686000  0.19894000  1.0
  C  C71  1  0.28014000  0.84799000  0.10599000  1.0
  C  C72  1  0.24986000  0.85553000  0.05876000  1.0
  C  C73  1  0.19200000  0.89093000  0.11827000  1.0
  C  C74  1  0.55094000  0.02364000  0.43840000  1.0
  C  C75  1  0.73768000  0.92036000  0.39771000  1.0
  C  C76  1  0.71880000  0.01616000  0.40396000  1.0
  C  C77  1  0.66596000  0.04602000  0.41763000  1.0
  C  C78  1  0.64492000  0.96648000  0.43596000  1.0
  C  C79  1  0.23700000  0.69356000  0.39328000  1.0
  C  C80  1  0.01254000  0.64025000  0.37319000  1.0
  C  C81  1  0.09638000  0.67369000  0.31194000  1.0
  C  C82  1  0.15840000  0.69284000  0.31877000  1.0
  C  C83  1  0.12834000  0.65457000  0.38876000  1.0
  C  C84  1  0.53460000  0.54624000  0.89100000  1.0
  C  C85  1  0.42284000  0.37660000  0.86346000  1.0
  C  C86  1  0.38762000  0.46946000  0.87359000  1.0
  C  C87  1  0.41864000  0.51601000  0.88290000  1.0
  C  C88  1  0.49058000  0.45569000  0.87800000  1.0
  C  C89  1  0.06130000  0.19716000  0.04115000  1.0
  C  C90  1  0.93574000  0.22983000  0.87944000  1.0
  C  C91  1  0.90808000  0.20666000  0.97156000  1.0
  C  C92  1  0.94318000  0.19606000  0.01590000  1.0
  C  C93  1  0.00988000  0.21203000  0.95366000  1.0
  C  C94  1  0.57934000  0.06352000  0.68481000  1.0
  C  C95  1  0.43290000  0.21196000  0.71285000  1.0
  C  C96  1  0.41856000  0.11555000  0.70817000  1.0
  C  C97  1  0.45924000  0.07404000  0.69931000  1.0
  C  C98  1  0.51636000  0.14408000  0.69975000  1.0
  C  C99  1  0.04842000  0.38886000  0.61183000  1.0
  C  C100  1  0.92112000  0.36165000  0.76748000  1.0
  C  C101  1  0.03836000  0.36167000  0.74893000  1.0
  C  C102  1  0.07152000  0.37990000  0.70674000  1.0
  C  C103  1  0.97406000  0.36156000  0.68299000  1.0
  C  C104  1  0.07414000  0.52226000  0.47585000  1.0
  C  C105  1  0.11068000  0.51396000  0.66515000  1.0
  C  C106  1  0.05744000  0.57740000  0.60372000  1.0
  C  C107  1  0.05100000  0.58134000  0.55060000  1.0
  C  C108  1  0.10936000  0.51450000  0.56793000  1.0
  C  C109  1  0.58264000  0.62186000  0.06743000  1.0
  C  C110  1  0.61294000  0.44977000  0.98655000  1.0
  C  C111  1  0.67374000  0.50090000  0.05281000  1.0
  C  C112  1  0.66762000  0.54950000  0.07412000  1.0
  C  C113  1  0.58148000  0.53271000  0.03030000  1.0
  C  C114  1  0.09546000  0.00915000  0.09932000  1.0
  C  C115  1  0.12920000  0.10960000  0.93749000  1.0
  C  C116  1  0.19228000  0.04256000  0.98593000  1.0
  C  C117  1  0.18428000  0.01567000  0.03145000  1.0
  C  C118  1  0.09704000  0.05905000  0.01634000  1.0
  C  C119  1  0.63550000  0.97110000  0.60500000  1.0
  C  C120  1  0.59568000  0.14166000  0.52493000  1.0
  C  C121  1  0.52536000  0.06599000  0.55378000  1.0
  C  C122  1  0.53740000  0.01690000  0.57223000  1.0
  C  C123  1  0.62886000  0.05354000  0.55500000  1.0
  C  C124  1  0.37736000  0.69541000  0.24379000  1.0
  C  C125  1  0.35910000  0.87084000  0.32025000  1.0
  C  C126  1  0.42502000  0.83003000  0.24779000  1.0
  C  C127  1  0.42994000  0.78120000  0.22693000  1.0
  C  C128  1  0.35964000  0.77978000  0.28883000  1.0
  C  C129  1  0.82920000  0.81685000  0.34687000  1.0
  C  C130  1  0.89628000  0.89276000  0.17911000  1.0
  C  C131  1  0.93186000  0.90330000  0.27161000  1.0
  C  C132  1  0.91100000  0.88484000  0.31886000  1.0
  C  C133  1  0.84552000  0.85773000  0.26010000  1.0
  C  C134  1  0.76538000  0.38385000  0.85338000  1.0
  C  C135  1  0.79714000  0.22071000  0.75329000  1.0
  C  C136  1  0.70764000  0.28707000  0.76057000  1.0
  C  C137  1  0.69804000  0.33208000  0.78816000  1.0
  C  C138  1  0.79030000  0.29996000  0.80954000  1.0
  C  C139  1  0.29064000  0.25441000  0.88089000  1.0
  C  C140  1  0.30990000  0.34464000  0.71139000  1.0
  C  C141  1  0.23800000  0.35375000  0.78936000  1.0
  C  C142  1  0.23076000  0.32804000  0.83565000  1.0
  C  C143  1  0.31220000  0.29531000  0.79510000  1.0
  C  C144  1  0.20388000  0.58443000  0.21691000  1.0
  C  C145  1  0.00358000  0.66283000  0.13877000  1.0
  C  C146  1  0.11922000  0.69375000  0.15984000  1.0
  C  C147  1  0.17314000  0.67240000  0.18369000  1.0
  C  C148  1  0.09286000  0.62019000  0.19174000  1.0
  C  C149  1  0.70802000  0.89273000  0.08871000  1.0
  C  C150  1  0.50254000  0.97400000  0.15891000  1.0
  C  C151  1  0.57818000  0.89925000  0.18623000  1.0
  C  C152  1  0.63306000  0.87611000  0.16565000  1.0
  C  C153  1  0.60602000  0.94023000  0.11764000  1.0
  C  C154  1  0.02614000  0.90776000  0.47545000  1.0
  C  C155  1  0.18728000  0.00709000  0.37229000  1.0
  C  C156  1  0.15742000  0.91255000  0.37983000  1.0
  C  C157  1  0.11330000  0.88475000  0.40935000  1.0
  C  C158  1  0.09084000  0.96552000  0.41563000  1.0
  C  C159  1  0.69936000  0.71184000  0.49968000  1.0
  C  C160  1  0.48648000  0.62809000  0.45343000  1.0
  C  C161  1  0.53800000  0.71647000  0.43908000  1.0
  C  C162  1  0.59572000  0.74062000  0.45300000  1.0
  C  C163  1  0.59728000  0.66194000  0.48039000  1.0
  C  C164  1  0.96884000  0.49370000  0.91533000  1.0
  C  C165  1  0.19526000  0.44261000  0.98099000  1.0
  C  C166  1  0.13366000  0.43918000  0.89553000  1.0
  C  C167  1  0.07308000  0.45395000  0.87689000  1.0
  C  C168  1  0.07724000  0.46913000  0.95847000  1.0
  C  C169  1  0.70574000  0.11985000  0.93830000  1.0
  C  C170  1  0.48186000  0.19316000  0.98486000  1.0
  C  C171  1  0.58246000  0.22426000  0.93520000  1.0
  C  C172  1  0.64216000  0.20327000  0.92105000  1.0
  C  C173  1  0.59140000  0.14847000  0.96852000  1.0
  C  C174  1  0.20850000  0.14914000  0.61115000  1.0
  C  C175  1  0.98642000  0.10982000  0.68845000  1.0
  C  C176  1  0.09556000  0.14388000  0.72155000  1.0
  C  C177  1  0.15576000  0.15451000  0.70003000  1.0
  C  C178  1  0.09392000  0.12270000  0.64110000  1.0
  C  C179  1  0.69882000  0.47537000  0.65872000  1.0
  C  C180  1  0.47816000  0.40240000  0.60817000  1.0
  C  C181  1  0.58114000  0.36812000  0.65210000  1.0
  C  C182  1  0.64042000  0.38904000  0.66702000  1.0
  C  C183  1  0.58524000  0.44766000  0.62796000  1.0
  C  C184  1  0.45534000  0.45318000  0.28842000  1.0
  C  C185  1  0.38250000  0.36531000  0.12636000  1.0
  C  C186  1  0.40424000  0.45685000  0.15269000  1.0
  C  C187  1  0.42150000  0.48163000  0.19783000  1.0
  C  C188  1  0.42562000  0.39948000  0.21083000  1.0
  C  C189  1  0.95446000  0.81095000  0.95306000  1.0
  C  C190  1  0.88792000  0.97322000  0.86438000  1.0
  C  C191  1  0.90026000  0.94597000  0.95691000  1.0
  C  C192  1  0.91680000  0.90079000  0.98205000  1.0
  C  C193  1  0.93258000  0.89030000  0.90044000  1.0
  C  C194  1  0.37020000  0.26427000  0.44986000  1.0
  C  C195  1  0.42458000  0.10216000  0.36539000  1.0
  C  C196  1  0.43852000  0.19478000  0.34053000  1.0
  C  C197  1  0.42760000  0.24055000  0.36686000  1.0
  C  C198  1  0.37748000  0.17889000  0.40610000  1.0
  C  C199  1  0.85898000  0.61901000  0.71955000  1.0
  C  C200  1  0.96486000  0.72782000  0.58472000  1.0
  C  C201  1  0.89870000  0.64564000  0.58499000  1.0
  C  C202  1  0.87182000  0.61445000  0.62278000  1.0
  C  C203  1  0.91260000  0.68210000  0.65916000  1.0
  C  C204  1  0.83206000  0.68202000  0.99363000  1.0
  C  C205  1  0.73722000  0.65006000  0.81711000  1.0
  C  C206  1  0.83964000  0.68891000  0.85359000  1.0
  C  C207  1  0.86576000  0.69628000  0.90191000  1.0
  C  C208  1  0.76914000  0.66576000  0.91064000  1.0
  C  C209  1  0.24470000  0.29514000  0.14605000  1.0
  C  C210  1  0.33112000  0.11984000  0.19414000  1.0
  C  C211  1  0.31672000  0.20568000  0.23755000  1.0
  C  C212  1  0.29646000  0.25435000  0.22308000  1.0
  C  C213  1  0.28626000  0.20322000  0.15771000  1.0
  C  C214  1  0.75790000  0.95209000  0.77576000  1.0
  C  C215  1  0.87212000  0.86423000  0.62764000  1.0
  C  C216  1  0.86838000  0.85595000  0.72432000  1.0
  C  C217  1  0.83990000  0.88183000  0.76499000  1.0
  C  C218  1  0.81852000  0.92317000  0.69493000  1.0
  C  C219  1  0.33072000  0.47013000  0.40448000  1.0
  C  C220  1  0.21314000  0.31065000  0.45688000  1.0
  C  C221  1  0.27320000  0.34023000  0.37787000  1.0
  C  C222  1  0.30610000  0.38427000  0.36313000  1.0
  C  C223  1  0.27002000  0.39501000  0.44074000  1.0
  Co  Co224  1  0.19316000  0.56577000  0.38151000  1.0
  Co  Co225  1  0.35448000  0.58965000  0.33354000  1.0
  Co  Co226  1  0.49900000  0.60511000  0.29437000  1.0
  Co  Co227  1  0.69992000  0.72678000  0.08472000  1.0
  Co  Co228  1  0.86190000  0.77811000  0.09539000  1.0
  Co  Co229  1  0.00760000  0.81711000  0.09873000  1.0
  Co  Co230  1  0.20332000  0.02282000  0.21104000  1.0
  Co  Co231  1  0.34142000  0.99779000  0.26237000  1.0
  Co  Co232  1  0.47460000  0.97914000  0.32062000  1.0
  Co  Co233  1  0.72616000  0.86602000  0.54979000  1.0
  Co  Co234  1  0.84846000  0.82109000  0.48864000  1.0
  Co  Co235  1  0.95918000  0.76146000  0.42560000  1.0
  Co  Co236  1  0.67144000  0.49941000  0.81601000  1.0
  Co  Co237  1  0.82440000  0.50297000  0.79002000  1.0
  Co  Co238  1  0.97510000  0.51890000  0.75731000  1.0
  Co  Co239  1  0.18690000  0.28341000  0.99343000  1.0
  Co  Co240  1  0.33662000  0.31689000  0.00098000  1.0
  Co  Co241  1  0.48826000  0.35320000  0.01254000  1.0
  Co  Co242  1  0.69772000  0.10460000  0.77829000  1.0
  Co  Co243  1  0.84626000  0.09765000  0.81376000  1.0
  Co  Co244  1  0.99730000  0.08375000  0.84706000  1.0
  Co  Co245  1  0.18666000  0.30654000  0.61496000  1.0
  Co  Co246  1  0.33356000  0.28191000  0.58613000  1.0
  Co  Co247  1  0.48198000  0.24461000  0.55841000  1.0
  H  H248  1  0.35630000  0.69005000  0.34984000  1.0
  H  H249  1  0.34498000  0.50193000  0.29284000  1.0
  H  H250  1  0.86892000  0.77990000  0.19665000  1.0
  H  H251  1  0.84568000  0.80535000  0.00335000  1.0
  H  H252  1  0.35670000  0.91511000  0.21620000  1.0
  H  H253  1  0.32144000  0.07941000  0.31243000  1.0
  H  H254  1  0.85206000  0.89120000  0.42440000  1.0
  H  H255  1  0.84758000  0.75914000  0.56234000  1.0
  H  H256  1  0.83858000  0.58898000  0.82986000  1.0
  H  H257  1  0.81366000  0.41324000  0.75784000  1.0
  H  H258  1  0.34806000  0.27164000  0.08656000  1.0
  H  H259  1  0.32036000  0.35602000  0.91526000  1.0
  H  H260  1  0.86268000  0.01368000  0.76640000  1.0
  H  H261  1  0.83066000  0.18196000  0.85668000  1.0
  H  H262  1  0.32540000  0.33746000  0.50772000  1.0
  H  H263  1  0.32900000  0.24215000  0.67129000  1.0
  H  H264  1  0.72726000  0.78476000  0.21196000  1.0
  H  H265  1  0.61138000  0.75941000  0.18665000  1.0
  H  H266  1  0.54582000  0.67155000  0.17790000  1.0
  H  H267  1  0.74032000  0.63555000  0.21361000  1.0
  H  H268  1  0.66472000  0.55831000  0.21281000  1.0
  H  H269  1  0.60056000  0.56515000  0.16447000  1.0
  H  H270  1  0.77118000  0.73609000  0.24634000  1.0
  H  H271  1  0.20550000  0.84962000  0.21596000  1.0
  H  H272  1  0.32390000  0.82587000  0.11307000  1.0
  H  H273  1  0.26452000  0.83901000  0.02209000  1.0
  H  H274  1  0.15028000  0.90686000  0.13815000  1.0
  H  H275  1  0.14862000  0.86427000  0.99552000  1.0
  H  H276  1  0.12452000  0.92500000  0.02346000  1.0
  H  H277  1  0.29232000  0.84212000  0.20887000  1.0
  H  H278  1  0.70396000  0.89716000  0.37338000  1.0
  H  H279  1  0.76178000  0.02903000  0.38358000  1.0
  H  H280  1  0.65898000  0.08661000  0.40889000  1.0
  H  H281  1  0.61676000  0.93178000  0.44347000  1.0
  H  H282  1  0.54050000  0.06558000  0.44142000  1.0
  H  H283  1  0.52846000  0.00280000  0.47122000  1.0
  H  H284  1  0.78034000  0.93104000  0.37356000  1.0
  H  H285  1  0.97964000  0.63239000  0.34001000  1.0
  H  H286  1  0.06450000  0.68170000  0.27966000  1.0
  H  H287  1  0.18618000  0.71596000  0.29176000  1.0
  H  H288  1  0.12590000  0.64565000  0.42966000  1.0
  H  H289  1  0.22836000  0.69686000  0.43562000  1.0
  H  H290  1  0.25666000  0.73060000  0.37828000  1.0
  H  H291  1  0.00986000  0.60680000  0.39999000  1.0
  H  H292  1  0.46452000  0.35949000  0.84210000  1.0
  H  H293  1  0.33580000  0.46329000  0.87015000  1.0
  H  H294  1  0.39578000  0.55350000  0.88703000  1.0
  H  H295  1  0.53672000  0.43558000  0.87801000  1.0
  H  H296  1  0.51690000  0.58401000  0.87604000  1.0
  H  H297  1  0.54754000  0.55145000  0.93184000  1.0
  H  H298  1  0.37792000  0.37035000  0.84088000  1.0
  H  H299  1  0.89048000  0.25238000  0.87898000  1.0
  H  H300  1  0.85572000  0.20689000  0.96772000  1.0
  H  H301  1  0.92360000  0.18741000  0.05379000  1.0
  H  H302  1  0.05426000  0.21819000  0.93199000  1.0
  H  H303  1  0.07936000  0.15718000  0.04467000  1.0
  H  H304  1  0.04452000  0.20971000  0.08004000  1.0
  H  H305  1  0.97576000  0.25328000  0.86250000  1.0
  H  H306  1  0.38714000  0.21245000  0.73522000  1.0
  H  H307  1  0.36630000  0.11436000  0.71273000  1.0
  H  H308  1  0.44546000  0.03375000  0.69622000  1.0
  H  H309  1  0.55726000  0.17036000  0.69651000  1.0
  H  H310  1  0.59894000  0.07530000  0.64725000  1.0
  H  H311  1  0.56994000  0.02131000  0.68680000  1.0
  H  H312  1  0.46976000  0.23549000  0.73369000  1.0
  H  H313  1  0.87810000  0.34192000  0.75100000  1.0
  H  H314  1  0.05534000  0.36277000  0.78858000  1.0
  H  H315  1  0.12074000  0.39433000  0.70653000  1.0
  H  H316  1  0.93004000  0.36034000  0.66001000  1.0
  H  H317  1  0.06082000  0.42978000  0.60657000  1.0
  H  H318  1  0.00766000  0.37801000  0.58579000  1.0
  H  H319  1  0.93110000  0.34655000  0.80694000  1.0
  H  H320  1  0.13306000  0.47514000  0.66105000  1.0
  H  H321  1  0.03600000  0.60272000  0.63238000  1.0
  H  H322  1  0.02180000  0.60932000  0.52989000  1.0
  H  H323  1  0.13700000  0.47915000  0.56296000  1.0
  H  H324  1  0.02474000  0.53233000  0.46166000  1.0
  H  H325  1  0.07838000  0.47936000  0.47541000  1.0
  H  H326  1  0.14852000  0.53920000  0.68251000  1.0
  H  H327  1  0.59968000  0.46721000  0.94913000  1.0
  H  H328  1  0.71562000  0.47575000  0.05569000  1.0
  H  H329  1  0.70298000  0.56740000  0.09917000  1.0
  H  H330  1  0.53368000  0.53635000  0.01332000  1.0
  H  H331  1  0.55132000  0.62018000  0.10218000  1.0
  H  H332  1  0.54908000  0.63228000  0.03537000  1.0
  H  H333  1  0.65998000  0.42926000  0.98116000  1.0
  H  H334  1  0.11932000  0.14678000  0.95670000  1.0
  H  H335  1  0.23552000  0.04342000  0.96212000  1.0
  H  H336  1  0.21960000  0.99013000  0.04892000  1.0
  H  H337  1  0.04886000  0.07537000  0.02061000  1.0
  H  H338  1  0.08296000  0.96768000  0.09587000  1.0
  H  H339  1  0.04924000  0.03000000  0.10707000  1.0
  H  H340  1  0.17466000  0.11416000  0.91466000  1.0
  H  H341  1  0.64622000  0.15354000  0.53442000  1.0
  H  H342  1  0.47788000  0.08292000  0.54875000  1.0
  H  H343  1  0.50158000  0.99007000  0.58705000  1.0
  H  H344  1  0.68066000  0.06104000  0.55390000  1.0
  H  H345  1  0.59998000  0.95098000  0.63045000  1.0
  H  H346  1  0.67260000  0.99086000  0.62929000  1.0
  H  H347  1  0.59082000  0.14129000  0.48215000  1.0
  H  H348  1  0.35530000  0.85615000  0.36056000  1.0
  H  H349  1  0.45004000  0.86407000  0.23439000  1.0
  H  H350  1  0.46032000  0.76947000  0.19481000  1.0
  H  H351  1  0.32202000  0.76661000  0.31477000  1.0
  H  H352  1  0.38194000  0.68733000  0.20170000  1.0
  H  H353  1  0.32774000  0.68473000  0.25653000  1.0
  H  H354  1  0.31028000  0.88375000  0.30806000  1.0
  H  H355  1  0.91626000  0.93196000  0.17141000  1.0
  H  H356  1  0.97482000  0.92633000  0.26438000  1.0
  H  H357  1  0.93588000  0.88989000  0.35538000  1.0
  H  H358  1  0.80596000  0.83801000  0.24124000  1.0
  H  H359  1  0.80904000  0.78432000  0.32378000  1.0
  H  H360  1  0.78768000  0.83221000  0.36798000  1.0
  H  H361  1  0.84736000  0.89102000  0.16141000  1.0
  H  H362  1  0.80036000  0.22490000  0.71059000  1.0
  H  H363  1  0.67512000  0.27083000  0.73195000  1.0
  H  H364  1  0.65592000  0.35674000  0.78503000  1.0
  H  H365  1  0.83764000  0.29630000  0.82622000  1.0
  H  H366  1  0.81840000  0.39156000  0.85457000  1.0
  H  H367  1  0.75040000  0.37204000  0.89293000  1.0
  H  H368  1  0.84748000  0.21676000  0.76782000  1.0
  H  H369  1  0.35852000  0.32809000  0.70339000  1.0
  H  H370  1  0.20748000  0.38456000  0.77478000  1.0
  H  H371  1  0.19348000  0.33547000  0.86403000  1.0
  H  H372  1  0.35446000  0.27232000  0.78672000  1.0
  H  H373  1  0.34290000  0.25517000  0.89134000  1.0
  H  H374  1  0.27984000  0.21508000  0.86586000  1.0
  H  H375  1  0.31438000  0.38726000  0.70707000  1.0
  H  H376  1  0.00756000  0.64039000  0.10224000  1.0
  H  H377  1  0.12020000  0.72816000  0.13622000  1.0
  H  H378  1  0.22214000  0.68750000  0.18182000  1.0
  H  H379  1  0.06630000  0.58451000  0.19784000  1.0
  H  H380  1  0.24548000  0.58642000  0.18949000  1.0
  H  H381  1  0.17956000  0.54634000  0.21176000  1.0
  H  H382  1  0.96698000  0.64219000  0.16268000  1.0
  H  H383  1  0.51528000  0.01332000  0.14473000  1.0
  H  H384  1  0.55328000  0.88617000  0.22045000  1.0
  H  H385  1  0.65854000  0.84356000  0.18177000  1.0
  H  H386  1  0.60604000  0.96797000  0.08617000  1.0
  H  H387  1  0.74630000  0.92077000  0.10026000  1.0
  H  H388  1  0.69484000  0.90238000  0.04814000  1.0
  H  H389  1  0.46598000  0.95880000  0.13119000  1.0
  H  H390  1  0.15986000  0.04393000  0.37658000  1.0
  H  H391  1  0.20018000  0.89698000  0.36109000  1.0
  H  H392  1  0.11616000  0.84374000  0.41745000  1.0
  H  H393  1  0.07154000  0.00135000  0.43111000  1.0
  H  H394  1  0.99768000  0.94309000  0.48491000  1.0
  H  H395  1  0.05592000  0.89891000  0.51018000  1.0
  H  H396  1  0.22692000  0.00680000  0.40151000  1.0
  H  H397  1  0.50210000  0.59155000  0.47240000  1.0
  H  H398  1  0.49790000  0.73402000  0.41844000  1.0
  H  H399  1  0.60944000  0.78011000  0.44434000  1.0
  H  H400  1  0.61346000  0.62657000  0.49888000  1.0
  H  H401  1  0.73240000  0.68890000  0.47452000  1.0
  H  H402  1  0.70118000  0.69358000  0.53861000  1.0
  H  H403  1  0.44386000  0.64233000  0.47560000  1.0
  H  H404  1  0.23422000  0.46858000  0.96651000  1.0
  H  H405  1  0.17358000  0.42487000  0.87248000  1.0
  H  H406  1  0.05734000  0.45091000  0.83722000  1.0
  H  H407  1  0.06374000  0.48210000  0.99685000  1.0
  H  H408  1  0.96708000  0.52971000  0.93876000  1.0
  H  H409  1  0.93708000  0.46563000  0.93582000  1.0
  H  H410  1  0.18340000  0.45621000  0.02066000  1.0
  H  H411  1  0.44982000  0.17389000  0.95612000  1.0
  H  H412  1  0.56360000  0.26140000  0.92301000  1.0
  H  H413  1  0.67852000  0.22192000  0.89719000  1.0
  H  H414  1  0.57980000  0.11335000  0.98944000  1.0
  H  H415  1  0.69392000  0.08186000  0.95606000  1.0
  H  H416  1  0.74600000  0.13668000  0.96144000  1.0
  H  H417  1  0.47800000  0.17044000  0.02123000  1.0
  H  H418  1  0.95780000  0.14183000  0.67102000  1.0
  H  H419  1  0.08112000  0.15247000  0.76085000  1.0
  H  H420  1  0.19668000  0.17188000  0.71981000  1.0
  H  H421  1  0.07640000  0.10996000  0.60369000  1.0
  H  H422  1  0.19350000  0.13532000  0.57224000  1.0
  H  H423  1  0.25112000  0.12578000  0.62333000  1.0
  H  H424  1  0.97700000  0.07474000  0.66477000  1.0
  H  H425  1  0.44628000  0.41936000  0.63845000  1.0
  H  H426  1  0.56456000  0.32919000  0.66000000  1.0
  H  H427  1  0.67916000  0.36888000  0.68667000  1.0
  H  H428  1  0.57130000  0.48465000  0.61164000  1.0
  H  H429  1  0.68768000  0.51311000  0.64014000  1.0
  H  H430  1  0.74190000  0.45901000  0.63864000  1.0
  H  H431  1  0.47320000  0.42753000  0.57350000  1.0
  H  H432  1  0.38052000  0.32814000  0.14782000  1.0
  H  H433  1  0.38794000  0.47497000  0.11723000  1.0
  H  H434  1  0.42082000  0.52291000  0.20370000  1.0
  H  H435  1  0.43014000  0.36238000  0.23008000  1.0
  H  H436  1  0.50814000  0.44475000  0.29142000  1.0
  H  H437  1  0.42994000  0.42483000  0.31339000  1.0
  H  H438  1  0.33330667  0.37655000  0.11314000  1.0
  H  H439  1  0.88814000  0.95147000  0.82771000  1.0
  H  H440  1  0.87918000  0.98019000  0.97428000  1.0
  H  H441  1  0.91062000  0.89364000  0.02295000  1.0
  H  H442  1  0.94218000  0.87199000  0.86348000  1.0
  H  H443  1  0.00614000  0.80528000  0.94199000  1.0
  H  H444  1  0.92432000  0.78871000  0.92570000  1.0
  H  H445  1  0.83790000  0.98676000  0.87288000  1.0
  H  H446  1  0.47530000  0.10005000  0.37957000  1.0
  H  H447  1  0.47196000  0.18927000  0.30870000  1.0
  H  H448  1  0.44850000  0.27800000  0.35825000  1.0
  H  H449  1  0.35282000  0.15780000  0.43664000  1.0
  H  H450  1  0.32122000  0.25228000  0.46197000  1.0
  H  H451  1  0.37260000  0.30471000  0.43579000  1.0
  H  H452  1  0.39316000  0.08094000  0.39334000  1.0
  H  H453  1  0.97022000  0.76070000  0.61199000  1.0
  H  H454  1  0.90136000  0.63724000  0.54401000  1.0
  H  H455  1  0.84816000  0.57750000  0.61702000  1.0
  H  H456  1  0.92852000  0.70909000  0.68868000  1.0
  H  H457  1  0.81046000  0.60103000  0.71522000  1.0
  H  H458  1  0.85624000  0.65211000  0.74630000  1.0
  H  H459  1  0.01404000  0.71119000  0.57834000  1.0
  H  H460  1  0.68580000  0.65949000  0.82625000  1.0
  H  H461  1  0.86426000  0.69592000  0.81749000  1.0
  H  H462  1  0.91550000  0.70660000  0.91016000  1.0
  H  H463  1  0.72598000  0.64933000  0.92812000  1.0
  H  H464  1  0.88330000  0.69141000  0.00306000  1.0
  H  H465  1  0.82236000  0.64208000  0.00758000  1.0
  H  H466  1  0.74916000  0.67063000  0.78060000  1.0
  H  H467  1  0.37524000  0.11373000  0.21789000  1.0
  H  H468  1  0.33368000  0.19410000  0.27534000  1.0
  H  H469  1  0.29366000  0.28808000  0.24783000  1.0
  H  H470  1  0.27416000  0.18856000  0.11962000  1.0
  H  H471  1  0.25994000  0.33278000  0.16271000  1.0
  H  H472  1  0.19192000  0.29200000  0.15459000  1.0
  H  H473  1  0.34512000  0.10993000  0.15381000  1.0
  H  H474  1  0.90422000  0.82991000  0.62955000  1.0
  H  H475  1  0.89440000  0.81961000  0.72652000  1.0
  H  H476  1  0.83786000  0.86821000  0.80457000  1.0
  H  H477  1  0.79562000  0.94967000  0.66802000  1.0
  H  H478  1  0.75118000  0.93412000  0.81449000  1.0
  H  H479  1  0.71108000  0.94676000  0.75494000  1.0
  H  H480  1  0.89988000  0.89522000  0.60767000  1.0
  H  H481  1  0.16156000  0.32329000  0.45550000  1.0
  H  H482  1  0.26504000  0.30605000  0.35454000  1.0
  H  H483  1  0.32750000  0.39166000  0.32568000  1.0
  H  H484  1  0.25806000  0.41304000  0.47741000  1.0
  H  H485  1  0.37832000  0.47159000  0.38538000  1.0
  H  H486  1  0.33816000  0.48264000  0.44522000  1.0
  H  H487  1  0.21464000  0.27165000  0.43878000  1.0
  N  N488  1  0.69290000  0.70883000  0.20179000  1.0
  N  N489  1  0.63902000  0.63536000  0.19314000  1.0
  N  N490  1  0.24272000  0.86966000  0.14290000  1.0
  N  N491  1  0.19446000  0.88240000  0.06685000  1.0
  N  N492  1  0.70430000  0.96649000  0.41504000  1.0
  N  N493  1  0.62010000  0.01424000  0.43719000  1.0
  N  N494  1  0.07864000  0.64871000  0.35569000  1.0
  N  N495  1  0.17722000  0.68057000  0.36715000  1.0
  N  N496  1  0.43324000  0.43219000  0.86965000  1.0
  N  N497  1  0.48320000  0.50718000  0.88544000  1.0
  N  N498  1  0.95044000  0.21755000  0.93323000  1.0
  N  N499  1  0.00700000  0.19978000  0.00448000  1.0
  N  N500  1  0.45518000  0.15888000  0.70918000  1.0
  N  N501  1  0.52018000  0.09252000  0.69433000  1.0
  N  N502  1  0.97652000  0.35218000  0.73423000  1.0
  N  N503  1  0.03106000  0.37943000  0.66558000  1.0
  N  N504  1  0.09248000  0.53450000  0.61427000  1.0
  N  N505  1  0.08342000  0.54165000  0.52851000  1.0
  N  N506  1  0.61988000  0.49079000  0.02503000  1.0
  N  N507  1  0.61050000  0.57019000  0.05831000  1.0
  N  N508  1  0.13758000  0.06970000  0.97680000  1.0
  N  N509  1  0.12492000  0.02699000  0.05088000  1.0
  N  N510  1  0.58302000  0.08930000  0.54430000  1.0
  N  N511  1  0.60224000  0.00938000  0.57309000  1.0
  N  N512  1  0.38178000  0.82861000  0.28719000  1.0
  N  N513  1  0.38910000  0.75006000  0.25310000  1.0
  N  N514  1  0.89092000  0.88562000  0.23500000  1.0
  N  N515  1  0.85748000  0.85518000  0.31126000  1.0
  N  N516  1  0.76558000  0.26697000  0.77439000  1.0
  N  N517  1  0.75084000  0.34053000  0.81826000  1.0
  N  N518  1  0.28886000  0.33280000  0.76405000  1.0
  N  N519  1  0.27782000  0.29164000  0.83924000  1.0
  N  N520  1  0.06770000  0.66173000  0.16596000  1.0
  N  N521  1  0.15690000  0.62609000  0.20403000  1.0
  N  N522  1  0.56158000  0.94051000  0.15672000  1.0
  N  N523  1  0.65014000  0.90123000  0.12203000  1.0
  N  N524  1  0.14304000  0.96339000  0.38345000  1.0
  N  N525  1  0.07070000  0.91800000  0.43138000  1.0
  N  N526  1  0.53946000  0.66690000  0.45582000  1.0
  N  N527  1  0.63258000  0.70632000  0.47936000  1.0
  N  N528  1  0.13634000  0.44764000  0.94705000  1.0
  N  N529  1  0.03736000  0.47354000  0.91618000  1.0
  N  N530  1  0.55074000  0.19042000  0.96609000  1.0
  N  N531  1  0.64780000  0.15519000  0.94128000  1.0
  N  N532  1  0.05692000  0.12264000  0.68497000  1.0
  N  N533  1  0.15466000  0.14195000  0.64926000  1.0
  N  N534  1  0.54688000  0.40458000  0.62632000  1.0
  N  N535  1  0.64272000  0.43927000  0.65272000  1.0
  N  N536  1  0.40706000  0.40546000  0.16104000  1.0
  N  N537  1  0.43498000  0.44554000  0.23431000  1.0
  N  N538  1  0.91000000  0.93902000  0.90584000  1.0
  N  N539  1  0.93730000  0.86589000  0.94647000  1.0
  N  N540  1  0.40620000  0.15642000  0.36508000  1.0
  N  N541  1  0.39020000  0.22973000  0.40828000  1.0
  N  N542  1  0.92330000  0.68827000  0.60803000  1.0
  N  N543  1  0.88102000  0.63752000  0.66905000  1.0
  N  N544  1  0.77944000  0.66889000  0.85899000  1.0
  N  N545  1  0.82092000  0.68364000  0.93764000  1.0
  N  N546  1  0.31092000  0.17403000  0.19644000  1.0
  N  N547  1  0.27804000  0.25286000  0.17295000  1.0
  N  N548  1  0.85464000  0.88157000  0.68028000  1.0
  N  N549  1  0.80942000  0.92459000  0.74701000  1.0
  N  N550  1  0.25250000  0.34678000  0.42700000  1.0
  N  N551  1  0.30480000  0.41782000  0.40313000  1.0
  O  O552  1  0.28872000  0.55730000  0.37850000  1.0
  O  O553  1  0.22112000  0.49645000  0.37940000  1.0
  O  O554  1  0.41334000  0.58582000  0.39046000  1.0
  O  O555  1  0.50198000  0.63122000  0.36069000  1.0
  O  O556  1  0.50870000  0.58061000  0.22918000  1.0
  O  O557  1  0.58584000  0.59791000  0.28850000  1.0
  O  O558  1  0.49226000  0.53706000  0.31792000  1.0
  O  O559  1  0.38052000  0.52474000  0.30765000  1.0
  O  O560  1  0.41552000  0.61667000  0.28979000  1.0
  O  O561  1  0.49150000  0.67187000  0.26827000  1.0
  O  O562  1  0.29414000  0.59498000  0.27793000  1.0
  O  O563  1  0.19020000  0.57096000  0.30900000  1.0
  O  O564  1  0.18406000  0.55741000  0.45139000  1.0
  O  O565  1  0.10996000  0.54460000  0.38774000  1.0
  O  O566  1  0.27174000  0.60011000  0.38713000  1.0
  O  O567  1  0.33416000  0.65599000  0.35713000  1.0
  O  O568  1  0.79474000  0.72865000  0.07280000  1.0
  O  O569  1  0.72496000  0.71789000  0.01482000  1.0
  O  O570  1  0.92142000  0.72065000  0.09763000  1.0
  O  O571  1  0.00862000  0.75735000  0.13804000  1.0
  O  O572  1  0.02148000  0.87557000  0.06005000  1.0
  O  O573  1  0.09346000  0.81578000  0.08684000  1.0
  O  O574  1  0.99370000  0.78127000  0.03669000  1.0
  O  O575  1  0.88248000  0.79286000  0.02629000  1.0
  O  O576  1  0.92500000  0.82686000  0.11234000  1.0
  O  O577  1  0.00614000  0.85635000  0.15888000  1.0
  O  O578  1  0.80060000  0.83344000  0.09520000  1.0
  O  O579  1  0.69512000  0.79933000  0.07971000  1.0
  O  O580  1  0.69392000  0.65708000  0.08756000  1.0
  O  O581  1  0.61528000  0.71493000  0.06865000  1.0
  O  O582  1  0.77948000  0.72873000  0.11686000  1.0
  O  O583  1  0.84594000  0.76565000  0.16524000  1.0
  O  O584  1  0.28764000  0.03332000  0.21793000  1.0
  O  O585  1  0.21456000  0.09351000  0.20258000  1.0
  O  O586  1  0.41160000  0.00556000  0.21352000  1.0
  O  O587  1  0.49966000  0.96366000  0.25346000  1.0
  O  O588  1  0.45736000  0.99544000  0.38742000  1.0
  O  O589  1  0.55456000  0.99126000  0.34726000  1.0
  O  O590  1  0.46982000  0.04806000  0.30120000  1.0
  O  O591  1  0.36058000  0.06004000  0.29853000  1.0
  O  O592  1  0.39484000  0.96267000  0.30610000  1.0
  O  O593  1  0.46810000  0.90944000  0.33705000  1.0
  O  O594  1  0.27540000  0.98575000  0.31238000  1.0
  O  O595  1  0.18750000  0.03146000  0.28129000  1.0
  O  O596  1  0.20512000  0.01487000  0.14113000  1.0
  O  O597  1  0.11794000  0.01995000  0.19302000  1.0
  O  O598  1  0.20618000  0.95077000  0.21939000  1.0
  O  O599  1  0.31896000  0.93768000  0.22701000  1.0
  O  O600  1  0.81122000  0.85601000  0.54444000  1.0
  O  O601  1  0.75354000  0.85441000  0.61640000  1.0
  O  O602  1  0.92652000  0.85994000  0.49793000  1.0
  O  O603  1  0.99640000  0.82643000  0.43407000  1.0
  O  O604  1  0.93026000  0.69576000  0.41464000  1.0
  O  O605  1  0.03164000  0.72839000  0.40732000  1.0
  O  O606  1  0.97684000  0.74692000  0.49449000  1.0
  O  O607  1  0.87798000  0.76771000  0.53274000  1.0
  O  O608  1  0.88158000  0.78778000  0.43212000  1.0
  O  O609  1  0.93574000  0.77786000  0.35928000  1.0
  O  O610  1  0.77408000  0.78042000  0.47441000  1.0
  O  O611  1  0.70668000  0.79591000  0.54291000  1.0
  O  O612  1  0.73220000  0.93544000  0.56129000  1.0
  O  O613  1  0.64374000  0.88455000  0.56603000  1.0
  O  O614  1  0.71156000  0.87831000  0.47924000  1.0
  O  O615  1  0.81846000  0.87482000  0.44793000  1.0
  O  O616  1  0.75328000  0.47806000  0.82772000  1.0
  O  O617  1  0.66314000  0.43283000  0.83968000  1.0
  O  O618  1  0.87730000  0.49334000  0.85117000  1.0
  O  O619  1  0.97554000  0.53038000  0.82815000  1.0
  O  O620  1  0.99116000  0.50816000  0.68800000  1.0
  O  O621  1  0.06294000  0.51384000  0.75295000  1.0
  O  O622  1  0.96476000  0.44819000  0.76929000  1.0
  O  O623  1  0.85024000  0.43760000  0.76751000  1.0
  O  O624  1  0.89148000  0.53122000  0.75144000  1.0
  O  O625  1  0.97032000  0.58902000  0.74380000  1.0
  O  O626  1  0.77340000  0.50864000  0.72764000  1.0
  O  O627  1  0.67392000  0.47418000  0.74961000  1.0
  O  O628  1  0.65312000  0.52467000  0.88059000  1.0
  O  O629  1  0.58640000  0.51485000  0.81211000  1.0
  O  O630  1  0.69116000  0.56673000  0.79438000  1.0
  O  O631  1  0.80120000  0.56909000  0.81411000  1.0
  O  O632  1  0.26916000  0.27827000  0.97383000  1.0
  O  O633  1  0.18372000  0.25977000  0.92597000  1.0
  O  O634  1  0.39158000  0.25765000  0.98855000  1.0
  O  O635  1  0.49434000  0.28169000  0.01665000  1.0
  O  O636  1  0.49860000  0.42350000  0.00708000  1.0
  O  O637  1  0.57452000  0.36117000  0.00182000  1.0
  O  O638  1  0.47398000  0.34898000  0.94159000  1.0
  O  O639  1  0.35934000  0.34487000  0.93641000  1.0
  O  O640  1  0.40454000  0.35462000  0.03108000  1.0
  O  O641  1  0.49030000  0.35858000  0.08346000  1.0
  O  O642  1  0.27996000  0.37706000  0.00900000  1.0
  O  O643  1  0.18366000  0.35051000  0.96999000  1.0
  O  O644  1  0.17676000  0.21742000  0.01778000  1.0
  O  O645  1  0.10152000  0.28011000  0.00796000  1.0
  O  O646  1  0.20168000  0.30603000  0.06070000  1.0
  O  O647  1  0.31220000  0.28887000  0.06603000  1.0
  O  O648  1  0.77930000  0.12629000  0.77578000  1.0
  O  O649  1  0.69242000  0.17330000  0.75994000  1.0
  O  O650  1  0.90026000  0.11225000  0.75523000  1.0
  O  O651  1  0.99894000  0.07547000  0.77586000  1.0
  O  O652  1  0.01206000  0.09231000  0.91650000  1.0
  O  O653  1  0.08418000  0.09327000  0.85111000  1.0
  O  O654  1  0.98368000  0.15490000  0.84060000  1.0
  O  O655  1  0.86900000  0.16097000  0.84373000  1.0
  O  O656  1  0.91362000  0.06728000  0.85165000  1.0
  O  O657  1  0.99744000  0.01309000  0.85584000  1.0
  O  O658  1  0.78924000  0.08787000  0.87327000  1.0
  O  O659  1  0.69112000  0.12344000  0.84630000  1.0
  O  O660  1  0.69158000  0.08552000  0.71084000  1.0
  O  O661  1  0.61296000  0.08910000  0.77197000  1.0
  O  O662  1  0.71398000  0.03581000  0.79613000  1.0
  O  O663  1  0.82502000  0.03288000  0.78277000  1.0
  O  O664  1  0.27078000  0.31592000  0.62366000  1.0
  O  O665  1  0.19652000  0.32361000  0.68389000  1.0
  O  O666  1  0.38786000  0.34063000  0.59771000  1.0
  O  O667  1  0.49294000  0.31470000  0.57409000  1.0
  O  O668  1  0.48488000  0.17599000  0.54286000  1.0
  O  O669  1  0.56838000  0.22893000  0.55974000  1.0
  O  O670  1  0.47514000  0.23045000  0.62833000  1.0
  O  O671  1  0.36532000  0.24940000  0.64587000  1.0
  O  O672  1  0.39690000  0.25074000  0.54483000  1.0
  O  O673  1  0.47902000  0.25905000  0.48916000  1.0
  O  O674  1  0.28026000  0.22070000  0.57753000  1.0
  O  O675  1  0.19406000  0.23844000  0.63189000  1.0
  O  O676  1  0.16594000  0.37344000  0.59977000  1.0
  O  O677  1  0.09972000  0.30512000  0.61263000  1.0
  O  O678  1  0.18838000  0.29108000  0.54482000  1.0
  O  O679  1  0.29550000  0.31452000  0.52843000  1.0
