# generated using pymatgen
data_Cu4H20C25O12
_symmetry_space_group_name_H-M   'P 1'
_cell_length_a   23.50390000
_cell_length_b   27.98270000
_cell_length_c   27.98270000
_cell_angle_alpha   89.99900000
_cell_angle_beta   90.00000000
_cell_angle_gamma   90.00000000
_symmetry_Int_Tables_number   1
_chemical_formula_structural   Cu4H20C25O12
_chemical_formula_sum   'Cu32 H160 C200 O96'
_cell_volume   18404.29405336
_cell_formula_units_Z   8
loop_
 _symmetry_equiv_pos_site_id
 _symmetry_equiv_pos_as_xyz
  1  'x, y, z'
loop_
 _atom_site_type_symbol
 _atom_site_label
 _atom_site_symmetry_multiplicity
 _atom_site_fract_x
 _atom_site_fract_y
 _atom_site_fract_z
 _atom_site_occupancy
  C  C0  1  0.03474000  0.58225000  0.72609000  1.0
  C  C1  1  0.82738000  0.61384000  0.81190000  1.0
  C  C2  1  0.94216000  0.51071000  0.59936000  1.0
  C  C3  1  0.96692000  0.69011000  0.67521000  1.0
  C  C4  1  0.82632000  0.45770000  0.74694000  1.0
  C  C5  1  0.50644000  0.76336000  0.33894000  1.0
  C  C6  1  0.29836000  0.81330000  0.36379000  1.0
  C  C7  1  0.45620000  0.58289000  0.40013000  1.0
  C  C8  1  0.40108000  0.66795000  0.26493000  1.0
  C  C9  1  0.40620000  0.73839000  0.50226000  1.0
  C  C10  1  0.03560000  0.38047000  0.18371000  1.0
  C  C11  1  0.81724000  0.39649000  0.13142000  1.0
  C  C12  1  0.00278000  0.44502000  0.33406000  1.0
  C  C13  1  0.96154000  0.27923000  0.23639000  1.0
  C  C14  1  0.85758000  0.53376000  0.22750000  1.0
  C  C15  1  0.52970000  0.18603000  0.63268000  1.0
  C  C16  1  0.30846000  0.17175000  0.59471000  1.0
  C  C17  1  0.51972000  0.37073000  0.56688000  1.0
  C  C18  1  0.44218000  0.29335000  0.69957000  1.0
  C  C19  1  0.42270000  0.23970000  0.45783000  1.0
  C  C20  1  0.80776000  0.79774000  0.25395000  1.0
  C  C21  1  0.00106000  0.89386000  0.30196000  1.0
  C  C22  1  0.80676000  0.90434000  0.09116000  1.0
  C  C23  1  0.92664000  0.78346000  0.16357000  1.0
  C  C24  1  0.88442000  0.01688000  0.23497000  1.0
  C  C25  1  0.29678000  0.24778000  0.08807000  1.0
  C  C26  1  0.53538000  0.24262000  0.12245000  1.0
  C  C27  1  0.39600000  0.08061000  0.04932000  1.0
  C  C28  1  0.33570000  0.18391000  0.20320000  1.0
  C  C29  1  0.40534000  0.20298000  0.96163000  1.0
  C  C30  1  0.80712000  0.14325000  0.76205000  1.0
  C  C31  1  0.99750000  0.10503000  0.64245000  1.0
  C  C32  1  0.92690000  0.04451000  0.88217000  1.0
  C  C33  1  0.93942000  0.21244000  0.79218000  1.0
  C  C34  1  0.89806000  0.95083000  0.72278000  1.0
  C  C35  1  0.28056000  0.67375000  0.87621000  1.0
  C  C36  1  0.50962000  0.64951000  0.86881000  1.0
  C  C37  1  0.32224000  0.86629000  0.88883000  1.0
  C  C38  1  0.34150000  0.74489000  0.76544000  1.0
  C  C39  1  0.41172000  0.74275000  0.99826000  1.0
  C  C40  1  0.86118000  0.90751000  0.71697000  1.0
  C  C41  1  0.89560000  0.86346000  0.70577000  1.0
  C  C42  1  0.91906000  0.83587000  0.74267000  1.0
  C  C43  1  0.90248000  0.84829000  0.65842000  1.0
  C  C44  1  0.95730000  0.77958000  0.68484000  1.0
  C  C45  1  0.93288000  0.80672000  0.64809000  1.0
  C  C46  1  0.94968000  0.79432000  0.73231000  1.0
  C  C47  1  0.99562000  0.73801000  0.67297000  1.0
  C  C48  1  0.36764000  0.72515000  0.03292000  1.0
  C  C49  1  0.38866000  0.71331000  0.08249000  1.0
  C  C50  1  0.41774000  0.67041000  0.09060000  1.0
  C  C51  1  0.36682000  0.73838000  0.12191000  1.0
  C  C52  1  0.39318000  0.67345000  0.17503000  1.0
  C  C53  1  0.36888000  0.71858000  0.16771000  1.0
  C  C54  1  0.42010000  0.65074000  0.13643000  1.0
  C  C55  1  0.37980000  0.64541000  0.21981000  1.0
  C  C56  1  0.85442000  0.05709000  0.25996000  1.0
  C  C57  1  0.88426000  0.10404000  0.25234000  1.0
  C  C58  1  0.87516000  0.13028000  0.21039000  1.0
  C  C59  1  0.92060000  0.12254000  0.28743000  1.0
  C  C60  1  0.94294000  0.19027000  0.23661000  1.0
  C  C61  1  0.94952000  0.16537000  0.27969000  1.0
  C  C62  1  0.90412000  0.17314000  0.20265000  1.0
  C  C63  1  0.98302000  0.23031000  0.22418000  1.0
  C  C64  1  0.37732000  0.20550000  0.91357000  1.0
  C  C65  1  0.40792000  0.22999000  0.87313000  1.0
  C  C66  1  0.42200000  0.27847000  0.87632000  1.0
  C  C67  1  0.40780000  0.20812000  0.82801000  1.0
  C  C68  1  0.42856000  0.28394000  0.78953000  1.0
  C  C69  1  0.41742000  0.23476000  0.78667000  1.0
  C  C70  1  0.43236000  0.30503000  0.83497000  1.0
  C  C71  1  0.42596000  0.31629000  0.74612000  1.0
  C  C72  1  0.83348000  0.58037000  0.24477000  1.0
  C  C73  1  0.86322000  0.62224000  0.22118000  1.0
  C  C74  1  0.91328000  0.64133000  0.24073000  1.0
  C  C75  1  0.84212000  0.64162000  0.17851000  1.0
  C  C76  1  0.92200000  0.69673000  0.17409000  1.0
  C  C77  1  0.87112000  0.67850000  0.15531000  1.0
  C  C78  1  0.94216000  0.67842000  0.21756000  1.0
  C  C79  1  0.95278000  0.73715000  0.14911000  1.0
  C  C80  1  0.45254000  0.21657000  0.41648000  1.0
  C  C81  1  0.41442000  0.20866000  0.37408000  1.0
  C  C82  1  0.39414000  0.24766000  0.34771000  1.0
  C  C83  1  0.40242000  0.16224000  0.35818000  1.0
  C  C84  1  0.34772000  0.19400000  0.29191000  1.0
  C  C85  1  0.36944000  0.15498000  0.31739000  1.0
  C  C86  1  0.36108000  0.24040000  0.30696000  1.0
  C  C87  1  0.30734000  0.18613000  0.25104000  1.0
  C  C88  1  0.79400000  0.41172000  0.74250000  1.0
  C  C89  1  0.83238000  0.36987000  0.75473000  1.0
  C  C90  1  0.82704000  0.34548000  0.79836000  1.0
  C  C91  1  0.87598000  0.35632000  0.72336000  1.0
  C  C92  1  0.91092000  0.29760000  0.78043000  1.0
  C  C93  1  0.91466000  0.32051000  0.73597000  1.0
  C  C94  1  0.86576000  0.30957000  0.81099000  1.0
  C  C95  1  0.95716000  0.26358000  0.79657000  1.0
  C  C96  1  0.32282000  0.73179000  0.71589000  1.0
  C  C97  1  0.36366000  0.74442000  0.67657000  1.0
  C  C98  1  0.35302000  0.78457000  0.64802000  1.0
  C  C99  1  0.40510000  0.71146000  0.66205000  1.0
  C  C100  1  0.41948000  0.75571000  0.58845000  1.0
  C  C101  1  0.43278000  0.71706000  0.61829000  1.0
  C  C102  1  0.38062000  0.79012000  0.60431000  1.0
  C  C103  1  0.44498000  0.75941000  0.53935000  1.0
  C  C104  1  0.03834000  0.47068000  0.37078000  1.0
  C  C105  1  0.01078000  0.47285000  0.41975000  1.0
  C  C106  1  0.02654000  0.44025000  0.45540000  1.0
  C  C107  1  0.97328000  0.51000000  0.43185000  1.0
  C  C108  1  0.96504000  0.47980000  0.51341000  1.0
  C  C109  1  0.95048000  0.51333000  0.47809000  1.0
  C  C110  1  0.00412000  0.44373000  0.50157000  1.0
  C  C111  1  0.93074000  0.47576000  0.55925000  1.0
  C  C112  1  0.45950000  0.52910000  0.39726000  1.0
  C  C113  1  0.48356000  0.50369000  0.44060000  1.0
  C  C114  1  0.46820000  0.51671000  0.48723000  1.0
  C  C115  1  0.51656000  0.46226000  0.43410000  1.0
  C  C116  1  0.51936000  0.44822000  0.51964000  1.0
  C  C117  1  0.53432000  0.43492000  0.47312000  1.0
  C  C118  1  0.48616000  0.48941000  0.52630000  1.0
  C  C119  1  0.54246000  0.42079000  0.56200000  1.0
  C  C120  1  0.94364000  0.02282000  0.92915000  1.0
  C  C121  1  0.89562000  0.99688000  0.95374000  1.0
  C  C122  1  0.89028000  0.94724000  0.94891000  1.0
  C  C123  1  0.86078000  0.02073000  0.98672000  1.0
  C  C124  1  0.81894000  0.94537000  0.01160000  1.0
  C  C125  1  0.82278000  0.99518000  0.01538000  1.0
  C  C126  1  0.85240000  0.92171000  0.97762000  1.0
  C  C127  1  0.78002000  0.91756000  0.04415000  1.0
  C  C128  1  0.41058000  0.02894000  0.04119000  1.0
  C  C129  1  0.37844000  0.00532000  0.00071000  1.0
  C  C130  1  0.39810000  0.00918000  0.95353000  1.0
  C  C131  1  0.33406000  0.97320000  0.01053000  1.0
  C  C132  1  0.33168000  0.94762000  0.92751000  1.0
  C  C133  1  0.31100000  0.94470000  0.97436000  1.0
  C  C134  1  0.37506000  0.98055000  0.91737000  1.0
  C  C135  1  0.30498000  0.91804000  0.88817000  1.0
  C  C136  1  0.78654000  0.64586000  0.83850000  1.0
  C  C137  1  0.72488000  0.62949000  0.83874000  1.0
  C  C138  1  0.70236000  0.60610000  0.87883000  1.0
  C  C139  1  0.68716000  0.64439000  0.80279000  1.0
  C  C140  1  0.60582000  0.61409000  0.84777000  1.0
  C  C141  1  0.62838000  0.63672000  0.80718000  1.0
  C  C142  1  0.64368000  0.59863000  0.88339000  1.0
  C  C143  1  0.54196000  0.60580000  0.85274000  1.0
  C  C144  1  0.02886000  0.88228000  0.34889000  1.0
  C  C145  1  0.09290000  0.87691000  0.34546000  1.0
  C  C146  1  0.12894000  0.90765000  0.37099000  1.0
  C  C147  1  0.11714000  0.83910000  0.31960000  1.0
  C  C148  1  0.21204000  0.86324000  0.34459000  1.0
  C  C149  1  0.17616000  0.83246000  0.31900000  1.0
  C  C150  1  0.18778000  0.90091000  0.37053000  1.0
  C  C151  1  0.27592000  0.85821000  0.34127000  1.0
  C  C152  1  0.58916000  0.24556000  0.15230000  1.0
  C  C153  1  0.63378000  0.28187000  0.13728000  1.0
  C  C154  1  0.65060000  0.31835000  0.16889000  1.0
  C  C155  1  0.66560000  0.27523000  0.09552000  1.0
  C  C156  1  0.72838000  0.34189000  0.11623000  1.0
  C  C157  1  0.71176000  0.30499000  0.08497000  1.0
  C  C158  1  0.69688000  0.34832000  0.15830000  1.0
  C  C159  1  0.77022000  0.37942000  0.09859000  1.0
  C  C160  1  0.02784000  0.12573000  0.59979000  1.0
  C  C161  1  0.09208000  0.12540000  0.60492000  1.0
  C  C162  1  0.12522000  0.09312000  0.57856000  1.0
  C  C163  1  0.11992000  0.16043000  0.63214000  1.0
  C  C164  1  0.21256000  0.13024000  0.60719000  1.0
  C  C165  1  0.17950000  0.16273000  0.63343000  1.0
  C  C166  1  0.18462000  0.09546000  0.57972000  1.0
  C  C167  1  0.27674000  0.12872000  0.61293000  1.0
  C  C168  1  0.08530000  0.39737000  0.15458000  1.0
  C  C169  1  0.12648000  0.35829000  0.14065000  1.0
  C  C170  1  0.11132000  0.32436000  0.10609000  1.0
  C  C171  1  0.18352000  0.36087000  0.15530000  1.0
  C  C172  1  0.21060000  0.30148000  0.09620000  1.0
  C  C173  1  0.22514000  0.33285000  0.13326000  1.0
  C  C174  1  0.15292000  0.29612000  0.08422000  1.0
  C  C175  1  0.25618000  0.28127000  0.06382000  1.0
  C  C176  1  0.55932000  0.13865000  0.63731000  1.0
  C  C177  1  0.61160000  0.14159000  0.66843000  1.0
  C  C178  1  0.60836000  0.13021000  0.71707000  1.0
  C  C179  1  0.66396000  0.15620000  0.64933000  1.0
  C  C180  1  0.70708000  0.15348000  0.72814000  1.0
  C  C181  1  0.71126000  0.16223000  0.67898000  1.0
  C  C182  1  0.65562000  0.13609000  0.74663000  1.0
  C  C183  1  0.75254000  0.17101000  0.76171000  1.0
  C  C184  1  0.24500000  0.63067000  0.88695000  1.0
  C  C185  1  0.20076000  0.62113000  0.84877000  1.0
  C  C186  1  0.21620000  0.61890000  0.80042000  1.0
  C  C187  1  0.14474000  0.60933000  0.86161000  1.0
  C  C188  1  0.12284000  0.58780000  0.77948000  1.0
  C  C189  1  0.10622000  0.59275000  0.82733000  1.0
  C  C190  1  0.17758000  0.60272000  0.76614000  1.0
  C  C191  1  0.08742000  0.55862000  0.74515000  1.0
  C  C192  1  0.77958000  0.76616000  0.28996000  1.0
  C  C193  1  0.71950000  0.78013000  0.30350000  1.0
  C  C194  1  0.68644000  0.81296000  0.27734000  1.0
  C  C195  1  0.69470000  0.75726000  0.34287000  1.0
  C  C196  1  0.60500000  0.79716000  0.32791000  1.0
  C  C197  1  0.63842000  0.76624000  0.35548000  1.0
  C  C198  1  0.62978000  0.82096000  0.28925000  1.0
  C  C199  1  0.54400000  0.80662000  0.34097000  1.0
  Cu  Cu200  1  0.92042000  0.61061000  0.73740000  1.0
  Cu  Cu201  1  0.88920000  0.52379000  0.80477000  1.0
  Cu  Cu202  1  0.89410000  0.52801000  0.69537000  1.0
  Cu  Cu203  1  0.95496000  0.59685000  0.64585000  1.0
  Cu  Cu204  1  0.38132000  0.73048000  0.34766000  1.0
  Cu  Cu205  1  0.30538000  0.74583000  0.44062000  1.0
  Cu  Cu206  1  0.39302000  0.67022000  0.42496000  1.0
  Cu  Cu207  1  0.48050000  0.66717000  0.34444000  1.0
  Cu  Cu208  1  0.91676000  0.37240000  0.19533000  1.0
  Cu  Cu209  1  0.89840000  0.47496000  0.14947000  1.0
  Cu  Cu210  1  0.92194000  0.44925000  0.25353000  1.0
  Cu  Cu211  1  0.97902000  0.36683000  0.27677000  1.0
  Cu  Cu212  1  0.41264000  0.23534000  0.61639000  1.0
  Cu  Cu213  1  0.32816000  0.24549000  0.52600000  1.0
  Cu  Cu214  1  0.43614000  0.29776000  0.54278000  1.0
  Cu  Cu215  1  0.52202000  0.28324000  0.62060000  1.0
  Cu  Cu216  1  0.91260000  0.85958000  0.23149000  1.0
  Cu  Cu217  1  0.98634000  0.95631000  0.22246000  1.0
  Cu  Cu218  1  0.87606000  0.93262000  0.17404000  1.0
  Cu  Cu219  1  0.82330000  0.83899000  0.16722000  1.0
  Cu  Cu220  1  0.40786000  0.23044000  0.12830000  1.0
  Cu  Cu221  1  0.47334000  0.20580000  0.04001000  1.0
  Cu  Cu222  1  0.42538000  0.18074000  0.04894000  1.0
  Cu  Cu223  1  0.33668000  0.15103000  0.10750000  1.0
  Cu  Cu224  1  0.92106000  0.12744000  0.72774000  1.0
  Cu  Cu225  1  0.96200000  0.02701000  0.70111000  1.0
  Cu  Cu226  1  0.94016000  0.03360000  0.77325000  1.0
  Cu  Cu227  1  0.90190000  0.12473000  0.82482000  1.0
  Cu  Cu228  1  0.40148000  0.71143000  0.85151000  1.0
  Cu  Cu229  1  0.49784000  0.73127000  0.92692000  1.0
  Cu  Cu230  1  0.40514000  0.79293000  0.91101000  1.0
  Cu  Cu231  1  0.29760000  0.76961000  0.85923000  1.0
  H  H232  1  0.83644000  0.90194000  0.75031000  1.0
  H  H233  1  0.83072000  0.91470000  0.68753000  1.0
  H  H234  1  0.91396000  0.84660000  0.77949000  1.0
  H  H235  1  0.88448000  0.86873000  0.62940000  1.0
  H  H236  1  0.01480000  0.74310000  0.63711000  1.0
  H  H237  1  0.03138000  0.73769000  0.69881000  1.0
  H  H238  1  0.93864000  0.79644000  0.61121000  1.0
  H  H239  1  0.96870000  0.77434000  0.76124000  1.0
  H  H240  1  0.33246000  0.75158000  0.03479000  1.0
  H  H241  1  0.34934000  0.69198000  0.01761000  1.0
  H  H242  1  0.43396000  0.64990000  0.06088000  1.0
  H  H243  1  0.34338000  0.77118000  0.11673000  1.0
  H  H244  1  0.33294000  0.64180000  0.22201000  1.0
  H  H245  1  0.39752000  0.60877000  0.21717000  1.0
  H  H246  1  0.34726000  0.73665000  0.19660000  1.0
  H  H247  1  0.43876000  0.61578000  0.14089000  1.0
  H  H248  1  0.81006000  0.05960000  0.24664000  1.0
  H  H249  1  0.85300000  0.04847000  0.29858000  1.0
  H  H250  1  0.84648000  0.11709000  0.18325000  1.0
  H  H251  1  0.92742000  0.10340000  0.32045000  1.0
  H  H252  1  0.02424000  0.22443000  0.24261000  1.0
  H  H253  1  0.99222000  0.22897000  0.18529000  1.0
  H  H254  1  0.97888000  0.17796000  0.30656000  1.0
  H  H255  1  0.89802000  0.19186000  0.16929000  1.0
  H  H256  1  0.36482000  0.16858000  0.90359000  1.0
  H  H257  1  0.33640000  0.22465000  0.91888000  1.0
  H  H258  1  0.42060000  0.29672000  0.91035000  1.0
  H  H259  1  0.39540000  0.17115000  0.82425000  1.0
  H  H260  1  0.38158000  0.32929000  0.74306000  1.0
  H  H261  1  0.45388000  0.34769000  0.75213000  1.0
  H  H262  1  0.41282000  0.21702000  0.75270000  1.0
  H  H263  1  0.43968000  0.34300000  0.83822000  1.0
  H  H264  1  0.78754000  0.58091000  0.23599000  1.0
  H  H265  1  0.83774000  0.58241000  0.28419000  1.0
  H  H266  1  0.93036000  0.62721000  0.27366000  1.0
  H  H267  1  0.80360000  0.62772000  0.16273000  1.0
  H  H268  1  0.99840000  0.73694000  0.15894000  1.0
  H  H269  1  0.94940000  0.73257000  0.10988000  1.0
  H  H270  1  0.85388000  0.69282000  0.12254000  1.0
  H  H271  1  0.98040000  0.69270000  0.23349000  1.0
  H  H272  1  0.48876000  0.23941000  0.40536000  1.0
  H  H273  1  0.47040000  0.18215000  0.42917000  1.0
  H  H274  1  0.40398000  0.28374000  0.35857000  1.0
  H  H275  1  0.41886000  0.13159000  0.37715000  1.0
  H  H276  1  0.28210000  0.15319000  0.25706000  1.0
  H  H277  1  0.27626000  0.21594000  0.25003000  1.0
  H  H278  1  0.36002000  0.11883000  0.30629000  1.0
  H  H279  1  0.34498000  0.27095000  0.28763000  1.0
  H  H280  1  0.75730000  0.41304000  0.76736000  1.0
  H  H281  1  0.77786000  0.40800000  0.70549000  1.0
  H  H282  1  0.79380000  0.35502000  0.82323000  1.0
  H  H283  1  0.88114000  0.37451000  0.68962000  1.0
  H  H284  1  0.99590000  0.26911000  0.77466000  1.0
  H  H285  1  0.96860000  0.27157000  0.83413000  1.0
  H  H286  1  0.94874000  0.31180000  0.71158000  1.0
  H  H287  1  0.86148000  0.29224000  0.84532000  1.0
  H  H288  1  0.31642000  0.69250000  0.71571000  1.0
  H  H289  1  0.28064000  0.74815000  0.70866000  1.0
  H  H290  1  0.32084000  0.81017000  0.65821000  1.0
  H  H291  1  0.41362000  0.67999000  0.68323000  1.0
  H  H292  1  0.45274000  0.79758000  0.53086000  1.0
  H  H293  1  0.48672000  0.74092000  0.53854000  1.0
  H  H294  1  0.46330000  0.69047000  0.60716000  1.0
  H  H295  1  0.37034000  0.82052000  0.58214000  1.0
  H  H296  1  0.07958000  0.45165000  0.37348000  1.0
  H  H297  1  0.04676000  0.50754000  0.35805000  1.0
  H  H298  1  0.05620000  0.41185000  0.44753000  1.0
  H  H299  1  0.96144000  0.53630000  0.40538000  1.0
  H  H300  1  0.88526000  0.47968000  0.54951000  1.0
  H  H301  1  0.93412000  0.43901000  0.57376000  1.0
  H  H302  1  0.91986000  0.54104000  0.48573000  1.0
  H  H303  1  0.01564000  0.41693000  0.52760000  1.0
  H  H304  1  0.41576000  0.51528000  0.39195000  1.0
  H  H305  1  0.48424000  0.51915000  0.36505000  1.0
  H  H306  1  0.44186000  0.54767000  0.49357000  1.0
  H  H307  1  0.52800000  0.45054000  0.39861000  1.0
  H  H308  1  0.58956000  0.41976000  0.56005000  1.0
  H  H309  1  0.53248000  0.44007000  0.59557000  1.0
  H  H310  1  0.56002000  0.40348000  0.46700000  1.0
  H  H311  1  0.47440000  0.50067000  0.56185000  1.0
  H  H312  1  0.97924000  0.99759000  0.92275000  1.0
  H  H313  1  0.95916000  0.05178000  0.95294000  1.0
  H  H314  1  0.91704000  0.92803000  0.92410000  1.0
  H  H315  1  0.86442000  0.05889000  0.99155000  1.0
  H  H316  1  0.74120000  0.93878000  0.05156000  1.0
  H  H317  1  0.76476000  0.88470000  0.02612000  1.0
  H  H318  1  0.79708000  0.01416000  0.04112000  1.0
  H  H319  1  0.84982000  0.88337000  0.97373000  1.0
  H  H320  1  0.45686000  0.02625000  0.03375000  1.0
  H  H321  1  0.40190000  0.00960000  0.07496000  1.0
  H  H322  1  0.43238000  0.03341000  0.94493000  1.0
  H  H323  1  0.31828000  0.96915000  0.04655000  1.0
  H  H324  1  0.25800000  0.92088000  0.89071000  1.0
  H  H325  1  0.31720000  0.93277000  0.85284000  1.0
  H  H326  1  0.27700000  0.92023000  0.98296000  1.0
  H  H327  1  0.39122000  0.98409000  0.88145000  1.0
  H  H328  1  0.80212000  0.64813000  0.87585000  1.0
  H  H329  1  0.78906000  0.68234000  0.82310000  1.0
  H  H330  1  0.73004000  0.59531000  0.90765000  1.0
  H  H331  1  0.70306000  0.66358000  0.77207000  1.0
  H  H332  1  0.52428000  0.59259000  0.81846000  1.0
  H  H333  1  0.53422000  0.57722000  0.87940000  1.0
  H  H334  1  0.60042000  0.64902000  0.77914000  1.0
  H  H335  1  0.62794000  0.58121000  0.91516000  1.0
  H  H336  1  0.01758000  0.91100000  0.37445000  1.0
  H  H337  1  0.01052000  0.84851000  0.36273000  1.0
  H  H338  1  0.11164000  0.93678000  0.39170000  1.0
  H  H339  1  0.09034000  0.81460000  0.30006000  1.0
  H  H340  1  0.28864000  0.85965000  0.30312000  1.0
  H  H341  1  0.29710000  0.88887000  0.35891000  1.0
  H  H342  1  0.19396000  0.80347000  0.29836000  1.0
  H  H343  1  0.21434000  0.92546000  0.39023000  1.0
  H  H344  1  0.57714000  0.25138000  0.19017000  1.0
  H  H345  1  0.60954000  0.20992000  0.15023000  1.0
  H  H346  1  0.62822000  0.32348000  0.20220000  1.0
  H  H347  1  0.65510000  0.24664000  0.07122000  1.0
  H  H348  1  0.79210000  0.36578000  0.06621000  1.0
  H  H349  1  0.74518000  0.41071000  0.08625000  1.0
  H  H350  1  0.73380000  0.29985000  0.05150000  1.0
  H  H351  1  0.70726000  0.37708000  0.18253000  1.0
  H  H352  1  0.01520000  0.10478000  0.56788000  1.0
  H  H353  1  0.01360000  0.16313000  0.59483000  1.0
  H  H354  1  0.10522000  0.06626000  0.55658000  1.0
  H  H355  1  0.09544000  0.18627000  0.65208000  1.0
  H  H356  1  0.28678000  0.12359000  0.65131000  1.0
  H  H357  1  0.29450000  0.09704000  0.59441000  1.0
  H  H358  1  0.19982000  0.18961000  0.65526000  1.0
  H  H359  1  0.20880000  0.06963000  0.55945000  1.0
  H  H360  1  0.06852000  0.41341000  0.12114000  1.0
  H  H361  1  0.10766000  0.42596000  0.17462000  1.0
  H  H362  1  0.06790000  0.32197000  0.09371000  1.0
  H  H363  1  0.19658000  0.38700000  0.18148000  1.0
  H  H364  1  0.23652000  0.26265000  0.03293000  1.0
  H  H365  1  0.28078000  0.31178000  0.04924000  1.0
  H  H366  1  0.26918000  0.33817000  0.14287000  1.0
  H  H367  1  0.14040000  0.27244000  0.05559000  1.0
  H  H368  1  0.52886000  0.11184000  0.65144000  1.0
  H  H369  1  0.57164000  0.12717000  0.60087000  1.0
  H  H370  1  0.56880000  0.11813000  0.73253000  1.0
  H  H371  1  0.66770000  0.16455000  0.61179000  1.0
  H  H372  1  0.76300000  0.20821000  0.75140000  1.0
  H  H373  1  0.73560000  0.17297000  0.79872000  1.0
  H  H374  1  0.75018000  0.17623000  0.66401000  1.0
  H  H375  1  0.65104000  0.12945000  0.78446000  1.0
  H  H376  1  0.27288000  0.59887000  0.88975000  1.0
  H  H377  1  0.22416000  0.63613000  0.92205000  1.0
  H  H378  1  0.25900000  0.62758000  0.78937000  1.0
  H  H379  1  0.13164000  0.61057000  0.89858000  1.0
  H  H380  1  0.11382000  0.54622000  0.71474000  1.0
  H  H381  1  0.07380000  0.52573000  0.76407000  1.0
  H  H382  1  0.06466000  0.58086000  0.83872000  1.0
  H  H383  1  0.19180000  0.59884000  0.72965000  1.0
  H  H384  1  0.77742000  0.72963000  0.27480000  1.0
  H  H385  1  0.80618000  0.76361000  0.32258000  1.0
  H  H386  1  0.70326000  0.83273000  0.24755000  1.0
  H  H387  1  0.71904000  0.73202000  0.36368000  1.0
  H  H388  1  0.54238000  0.82116000  0.37776000  1.0
  H  H389  1  0.52512000  0.83471000  0.31797000  1.0
  H  H390  1  0.62078000  0.74848000  0.38639000  1.0
  H  H391  1  0.60536000  0.84606000  0.26831000  1.0
  O  O392  1  0.93478000  0.49490000  0.64374000  1.0
  O  O393  1  0.94634000  0.55689000  0.59101000  1.0
  O  O394  1  0.95006000  0.67332000  0.71714000  1.0
  O  O395  1  0.96882000  0.66248000  0.63725000  1.0
  O  O396  1  0.82912000  0.48748000  0.71008000  1.0
  O  O397  1  0.85330000  0.46572000  0.78733000  1.0
  O  O398  1  0.99846000  0.60256000  0.75561000  1.0
  O  O399  1  0.02010000  0.57317000  0.68143000  1.0
  O  O400  1  0.88872000  0.59132000  0.67916000  1.0
  O  O401  1  0.92730000  0.54456000  0.75204000  1.0
  O  O402  1  0.86298000  0.63421000  0.78157000  1.0
  O  O403  1  0.83168000  0.56858000  0.82418000  1.0
  O  O404  1  0.40800000  0.60253000  0.41557000  1.0
  O  O405  1  0.49610000  0.60806000  0.37769000  1.0
  O  O406  1  0.36796000  0.69800000  0.28799000  1.0
  O  O407  1  0.44892000  0.65224000  0.28332000  1.0
  O  O408  1  0.41846000  0.69583000  0.48493000  1.0
  O  O409  1  0.36400000  0.76456000  0.48535000  1.0
  O  O410  1  0.45038000  0.77095000  0.34298000  1.0
  O  O411  1  0.52930000  0.71987000  0.33779000  1.0
  O  O412  1  0.43408000  0.69798000  0.38171000  1.0
  O  O413  1  0.33362000  0.70307000  0.39726000  1.0
  O  O414  1  0.33846000  0.78970000  0.34060000  1.0
  O  O415  1  0.27960000  0.80021000  0.40605000  1.0
  O  O416  1  0.98232000  0.46938000  0.29729000  1.0
  O  O417  1  0.99964000  0.39804000  0.33485000  1.0
  O  O418  1  0.93608000  0.30431000  0.20242000  1.0
  O  O419  1  0.98064000  0.29986000  0.27536000  1.0
  O  O420  1  0.86346000  0.49779000  0.25789000  1.0
  O  O421  1  0.87398000  0.53080000  0.18258000  1.0
  O  O422  1  0.98756000  0.37053000  0.16181000  1.0
  O  O423  1  0.03678000  0.38580000  0.23053000  1.0
  O  O424  1  0.90676000  0.38546000  0.26091000  1.0
  O  O425  1  0.93778000  0.43808000  0.19095000  1.0
  O  O426  1  0.84676000  0.36566000  0.15734000  1.0
  O  O427  1  0.83352000  0.44122000  0.12559000  1.0
  O  O428  1  0.46666000  0.36124000  0.55370000  1.0
  O  O429  1  0.55230000  0.33855000  0.58854000  1.0
  O  O430  1  0.40448000  0.26717000  0.67682000  1.0
  O  O431  1  0.49172000  0.30377000  0.68067000  1.0
  O  O432  1  0.44900000  0.27511000  0.47938000  1.0
  O  O433  1  0.37524000  0.22095000  0.47478000  1.0
  O  O434  1  0.47308000  0.18596000  0.62651000  1.0
  O  O435  1  0.56068000  0.22568000  0.63129000  1.0
  O  O436  1  0.47206000  0.25872000  0.58089000  1.0
  O  O437  1  0.37162000  0.27529000  0.57120000  1.0
  O  O438  1  0.35682000  0.18305000  0.61634000  1.0
  O  O439  1  0.28960000  0.19449000  0.55682000  1.0
  O  O440  1  0.85038000  0.92936000  0.10791000  1.0
  O  O441  1  0.78420000  0.86852000  0.11540000  1.0
  O  O442  1  0.94612000  0.80541000  0.20155000  1.0
  O  O443  1  0.88022000  0.79753000  0.14177000  1.0
  O  O444  1  0.85522000  0.99144000  0.20401000  1.0
  O  O445  1  0.93708000  0.00600000  0.24721000  1.0
  O  O446  1  0.85552000  0.82044000  0.26620000  1.0
  O  O447  1  0.78606000  0.79999000  0.21056000  1.0
  O  O448  1  0.84590000  0.88531000  0.20699000  1.0
  O  O449  1  0.94520000  0.90985000  0.19232000  1.0
  O  O450  1  0.95194000  0.87307000  0.29165000  1.0
  O  O451  1  0.02402000  0.92682000  0.27464000  1.0
  O  O452  1  0.43606000  0.11308000  0.04030000  1.0
  O  O453  1  0.34852000  0.09129000  0.07321000  1.0
  O  O454  1  0.37196000  0.21829000  0.19047000  1.0
  O  O455  1  0.31742000  0.15080000  0.17310000  1.0
  O  O456  1  0.37488000  0.18750000  0.99757000  1.0
  O  O457  1  0.45944000  0.21265000  0.97082000  1.0
  O  O458  1  0.34024000  0.26599000  0.11235000  1.0
  O  O459  1  0.29276000  0.20147000  0.07829000  1.0
  O  O460  1  0.40622000  0.17002000  0.10992000  1.0
  O  O461  1  0.42302000  0.24607000  0.06595000  1.0
  O  O462  1  0.48594000  0.24910000  0.14568000  1.0
  O  O463  1  0.53862000  0.22438000  0.07827000  1.0
  O  O464  1  0.93830000  0.02055000  0.84242000  1.0
  O  O465  1  0.91060000  0.08941000  0.88183000  1.0
  O  O466  1  0.94246000  0.19136000  0.74997000  1.0
  O  O467  1  0.92390000  0.18901000  0.83066000  1.0
  O  O468  1  0.89382000  0.97699000  0.76175000  1.0
  O  O469  1  0.93080000  0.96590000  0.68800000  1.0
  O  O470  1  0.84276000  0.14761000  0.72590000  1.0
  O  O471  1  0.82436000  0.12697000  0.80376000  1.0
  O  O472  1  0.95028000  0.09918000  0.78181000  1.0
  O  O473  1  0.90166000  0.06319000  0.72210000  1.0
  O  O474  1  0.96736000  0.13417000  0.66991000  1.0
  O  O475  1  0.99852000  0.05845000  0.64913000  1.0
  O  O476  1  0.37690000  0.85504000  0.89208000  1.0
  O  O477  1  0.28226000  0.83355000  0.88156000  1.0
  O  O478  1  0.38584000  0.72307000  0.78443000  1.0
  O  O479  1  0.30400000  0.76778000  0.79164000  1.0
  O  O480  1  0.40270000  0.78467000  0.97874000  1.0
  O  O481  1  0.44636000  0.71226000  0.97737000  1.0
  O  O482  1  0.33700000  0.66818000  0.87000000  1.0
  O  O483  1  0.25440000  0.71573000  0.87417000  1.0
  O  O484  1  0.35784000  0.75029000  0.88935000  1.0
  O  O485  1  0.45662000  0.75694000  0.87760000  1.0
  O  O486  1  0.45782000  0.65793000  0.85120000  1.0
  O  O487  1  0.53312000  0.67683000  0.90133000  1.0
