# generated using pymatgen
data_GdH3C6(NO)6
_symmetry_space_group_name_H-M   'P 1'
_cell_length_a   21.10455000
_cell_length_b   21.10555000
_cell_length_c   22.52520000
_cell_angle_alpha   90.00000000
_cell_angle_beta   90.00000000
_cell_angle_gamma   90.00000000
_symmetry_Int_Tables_number   1
_chemical_formula_structural   GdH3C6(NO)6
_chemical_formula_sum   'Gd16 H48 C96 N96 O96'
_cell_volume   10033.24520619
_cell_formula_units_Z   16
loop_
 _symmetry_equiv_pos_site_id
 _symmetry_equiv_pos_as_xyz
  1  'x, y, z'
loop_
 _atom_site_type_symbol
 _atom_site_label
 _atom_site_symmetry_multiplicity
 _atom_site_fract_x
 _atom_site_fract_y
 _atom_site_fract_z
 _atom_site_occupancy
  C  C0  1  0.01196000  0.13126000  0.04498000  1.0
  C  C1  1  0.03482000  0.42782000  0.22984000  1.0
  C  C2  1  0.91830000  0.27326000  0.13522000  1.0
  C  C3  1  0.04744000  0.39512000  0.06454000  1.0
  C  C4  1  0.18754000  0.29564000  0.14832000  1.0
  C  C5  1  0.05384000  0.17392000  0.22590000  1.0
  C  C6  1  0.45550000  0.04002000  0.56788000  1.0
  C  C7  1  0.22158000  0.00378000  0.70906000  1.0
  C  C8  1  0.31082000  0.91244000  0.58822000  1.0
  C  C9  1  0.18292000  0.07950000  0.57866000  1.0
  C  C10  1  0.32810000  0.18370000  0.65476000  1.0
  C  C11  1  0.39198500  0.04480500  0.72308000  1.0
  C  C12  1  0.60692000  0.45158000  0.01124000  1.0
  C  C13  1  0.56650000  0.23630000  0.22332000  1.0
  C  C14  1  0.69182000  0.32636000  0.12402000  1.0
  C  C15  1  0.57190000  0.20226000  0.03927500  1.0
  C  C16  1  0.41892000  0.30518000  0.11974000  1.0
  C  C17  1  0.54816000  0.44076000  0.17816000  1.0
  C  C18  1  0.12128000  0.56264000  0.52742000  1.0
  C  C19  1  0.37204000  0.59082000  0.70262000  1.0
  C  C20  1  0.25328000  0.68196500  0.59300000  1.0
  C  C21  1  0.37152000  0.54384000  0.52764000  1.0
  C  C22  1  0.30558000  0.41870000  0.65312000  1.0
  C  C23  1  0.16840000  0.54688000  0.70798000  1.0
  C  C24  1  0.57552000  0.96400000  0.01736000  1.0
  C  C25  1  0.51170000  0.72898000  0.81192000  1.0
  C  C26  1  0.41962000  0.81224000  0.98500000  1.0
  C  C27  1  0.57776000  0.69016000  0.99412000  1.0
  C  C28  1  0.68086000  0.80942000  0.88864000  1.0
  C  C29  1  0.51570000  0.93008000  0.86866000  1.0
  C  C30  1  0.60446000  0.55306000  0.47320000  1.0
  C  C31  1  0.86602000  0.53358000  0.33098000  1.0
  C  C32  1  0.74256000  0.41018000  0.46730000  1.0
  C  C33  1  0.88356000  0.54530000  0.49990000  1.0
  C  C34  1  0.80336000  0.67542000  0.41760000  1.0
  C  C35  1  0.68494000  0.53534000  0.32526000  1.0
  C  C36  1  0.05352000  0.63378000  0.03588000  1.0
  C  C37  1  0.09286000  0.86760000  0.83560000  1.0
  C  C38  1  0.18242000  0.76886000  0.97552000  1.0
  C  C39  1  0.03208000  0.89160000  0.01542000  1.0
  C  C40  1  0.91860000  0.80048000  0.89286000  1.0
  C  C41  1  0.06118000  0.66398000  0.86090000  1.0
  C  C42  1  0.95174000  0.05506000  0.52748000  1.0
  C  C43  1  0.70256000  0.09558000  0.33335667  1.0
  C  C44  1  0.79678000  0.18264000  0.47024000  1.0
  C  C45  1  0.68708000  0.03138000  0.51146000  1.0
  C  C46  1  0.81102000  0.90938500  0.42236000  1.0
  C  C47  1  0.91692000  0.06698000  0.36354000  1.0
  C  C48  1  0.97472000  0.07958000  0.32940000  1.0
  C  C49  1  0.03628000  0.12588000  0.26924000  1.0
  C  C50  1  0.43230000  0.03240000  0.77402000  1.0
  C  C51  1  0.48756000  0.98324000  0.83702000  1.0
  C  C52  1  0.64284000  0.52774000  0.27482000  1.0
  C  C53  1  0.57522000  0.49078000  0.21498000  1.0
  C  C54  1  0.12434000  0.55794000  0.75626000  1.0
  C  C55  1  0.07814000  0.61022000  0.82346000  1.0
  C  C56  1  0.17042000  0.97498000  0.74138000  1.0
  C  C57  1  0.11510000  0.91522000  0.79466000  1.0
  C  C58  1  0.58404000  0.18706000  0.26460500  1.0
  C  C59  1  0.64750000  0.12346000  0.30512000  1.0
  C  C60  1  0.49030000  0.68048000  0.77182000  1.0
  C  C61  1  0.42678000  0.61716000  0.73164000  1.0
  C  C62  1  0.91510000  0.52205000  0.28760000  1.0
  C  C63  1  0.99428000  0.48078000  0.24568000  1.0
  C  C64  1  0.02002000  0.95670000  0.04266000  1.0
  C  C65  1  0.00552000  0.05900000  0.04856000  1.0
  C  C66  1  0.52628000  0.03960000  0.56476000  1.0
  C  C67  1  0.62494000  0.03382000  0.54254000  1.0
  C  C68  1  0.59648000  0.62444000  0.01436000  1.0
  C  C69  1  0.61432000  0.52314000  0.01402000  1.0
  C  C70  1  0.04996000  0.57166000  0.52944000  1.0
  C  C71  1  0.94794000  0.56034000  0.52530000  1.0
  C  C72  1  0.59422000  0.03262000  0.02646000  1.0
  C  C73  1  0.59250000  0.13562000  0.02350000  1.0
  C  C74  1  0.43304000  0.54936000  0.49434000  1.0
  C  C75  1  0.53284000  0.55644000  0.47358000  1.0
  C  C76  1  0.06240000  0.56166000  0.03038000  1.0
  C  C77  1  0.05350000  0.45806000  0.03198000  1.0
  C  C78  1  0.11236000  0.08118000  0.57420000  1.0
  C  C79  1  0.01400000  0.06562500  0.55594000  1.0
  C  C80  1  0.85302000  0.29024000  0.14970000  1.0
  C  C81  1  0.75654000  0.31644000  0.14430000  1.0
  C  C82  1  0.29390000  0.84589500  0.57500500  1.0
  C  C83  1  0.26912000  0.74796000  0.57696000  1.0
  C  C84  1  0.35052000  0.80010000  0.99680000  1.0
  C  C85  1  0.24988000  0.78289500  0.99260000  1.0
  C  C86  1  0.76694000  0.24434000  0.48000000  1.0
  C  C87  1  0.74358000  0.34192000  0.47896500  1.0
  C  C88  1  0.25156000  0.29434000  0.12382000  1.0
  C  C89  1  0.35068000  0.29910000  0.11144000  1.0
  C  C90  1  0.33156000  0.25188000  0.66776000  1.0
  C  C91  1  0.31944000  0.35196000  0.66776000  1.0
  C  C92  1  0.74948000  0.81418000  0.87464000  1.0
  C  C93  1  0.85072000  0.80742000  0.87604000  1.0
  C  C94  1  0.82212000  0.74176000  0.42386000  1.0
  C  C95  1  0.82576000  0.84190000  0.42614000  1.0
  Gd  Gd96  1  0.03702000  0.24700000  0.10386500  1.0
  Gd  Gd97  1  0.06988000  0.31338000  0.18416000  1.0
  Gd  Gd98  1  0.32392000  0.04684000  0.59680000  1.0
  Gd  Gd99  1  0.30798000  0.05624000  0.63032000  1.0
  Gd  Gd100  1  0.56928000  0.34462000  0.07850000  1.0
  Gd  Gd101  1  0.54378000  0.30994000  0.12586000  1.0
  Gd  Gd102  1  0.23838000  0.54844000  0.58820000  1.0
  Gd  Gd103  1  0.28133000  0.54044000  0.63078000  1.0
  Gd  Gd104  1  0.54990000  0.83746000  0.97560000  1.0
  Gd  Gd105  1  0.55304000  0.79926500  0.90618000  1.0
  Gd  Gd106  1  0.73976000  0.54498000  0.45482000  1.0
  Gd  Gd107  1  0.77338000  0.54412000  0.42106000  1.0
  Gd  Gd108  1  0.04822000  0.75118000  0.96996000  1.0
  Gd  Gd109  1  0.04400000  0.78958000  0.91998000  1.0
  Gd  Gd110  1  0.82912000  0.05670000  0.47794000  1.0
  Gd  Gd111  1  0.78550000  0.03648500  0.41056000  1.0
  H  H112  1  0.89314000  0.07955500  0.23820000  1.0
  H  H113  1  0.90529500  0.15743500  0.25076500  1.0
  H  H114  1  0.48356500  0.95365500  0.69440000  1.0
  H  H115  1  0.53308500  0.92040000  0.74316000  1.0
  H  H116  1  0.61896000  0.42912000  0.34284000  1.0
  H  H117  1  0.55034000  0.41094000  0.30717500  1.0
  H  H118  1  0.10244000  0.65540000  0.68593000  1.0
  H  H119  1  0.05440000  0.69274000  0.73484000  1.0
  H  H120  1  0.27002000  0.92606000  0.79300000  1.0
  H  H121  1  0.22686000  0.89024000  0.84667000  1.0
  H  H122  1  0.66720000  0.27580000  0.29644500  1.0
  H  H123  1  0.72192000  0.22356000  0.32198000  1.0
  H  H124  1  0.34491000  0.70818000  0.77358000  1.0
  H  H125  1  0.40072000  0.76648000  0.76560000  1.0
  H  H126  1  0.94800000  0.41374500  0.35252000  1.0
  H  H127  1  0.02534000  0.43704000  0.35152000  1.0
  H  H128  1  0.09480000  0.98574000  0.95130000  1.0
  H  H129  1  0.07936000  0.06526000  0.95456000  1.0
  H  H130  1  0.50360000  0.04530000  0.45074000  1.0
  H  H131  1  0.58090000  0.05670500  0.43190000  1.0
  H  H132  1  0.50608500  0.59901500  0.93628000  1.0
  H  H133  1  0.52886000  0.52174000  0.92677000  1.0
  H  H134  1  0.05482000  0.45670000  0.48391500  1.0
  H  H135  1  0.97430000  0.44644000  0.48292000  1.0
  H  H136  1  0.47098000  0.04304000  0.04380000  1.0
  H  H137  1  0.46868000  0.12378000  0.03550000  1.0
  H  H138  1  0.48610000  0.50374000  0.59686000  1.0
  H  H139  1  0.55582000  0.54208000  0.58610000  1.0
  H  H140  1  0.94324000  0.56008000  0.06634000  1.0
  H  H141  1  0.93854000  0.47920000  0.07178000  1.0
  H  H142  1  0.13366000  0.02049500  0.47390500  1.0
  H  H143  1  0.05516000  0.00570500  0.46024500  1.0
  H  H144  1  0.82782000  0.23500000  0.04438000  1.0
  H  H145  1  0.75774000  0.27327000  0.03528000  1.0
  H  H146  1  0.27328000  0.84126000  0.69148000  1.0
  H  H147  1  0.25896000  0.76146000  0.69262000  1.0
  H  H148  1  0.34656000  0.77468000  0.88072000  1.0
  H  H149  1  0.26568000  0.77000000  0.87760000  1.0
  H  H150  1  0.81400000  0.26038000  0.37332000  1.0
  H  H151  1  0.77917500  0.33272000  0.36370000  1.0
  H  H152  1  0.27712000  0.28289000  0.23816000  1.0
  H  H153  1  0.35694000  0.28456000  0.22910000  1.0
  H  H154  1  0.25764000  0.25216000  0.57324000  1.0
  H  H155  1  0.24574500  0.33190000  0.57368000  1.0
  H  H156  1  0.75310000  0.76870000  0.98318000  1.0
  H  H157  1  0.83314000  0.75680000  0.98322000  1.0
  H  H158  1  0.70116000  0.75552000  0.39562000  1.0
  H  H159  1  0.70236000  0.83604000  0.40240000  1.0
  N  N160  1  0.92650000  0.11578000  0.23588000  1.0
  N  N161  1  0.97750000  0.10148000  0.27342000  1.0
  N  N162  1  0.03065500  0.08762000  0.35690000  1.0
  N  N163  1  0.06900000  0.11684000  0.31952000  1.0
  N  N164  1  0.48678000  0.93609500  0.73725500  1.0
  N  N165  1  0.47317500  0.98372000  0.77900000  1.0
  N  N166  1  0.42422000  0.06185500  0.82624000  1.0
  N  N167  1  0.45890000  0.03112000  0.86566000  1.0
  N  N168  1  0.59754000  0.42400000  0.30156000  1.0
  N  N169  1  0.60048000  0.48060000  0.26882000  1.0
  N  N170  1  0.64166000  0.56702000  0.22814000  1.0
  N  N171  1  0.59972000  0.54354000  0.19044000  1.0
  N  N172  1  0.09676500  0.66796000  0.73028000  1.0
  N  N173  1  0.09495500  0.61350000  0.76604000  1.0
  N  N174  1  0.12358000  0.52148000  0.80502000  1.0
  N  N175  1  0.09421500  0.55396000  0.84692000  1.0
  N  N176  1  0.23068000  0.89758000  0.80114000  1.0
  N  N177  1  0.17546000  0.92706000  0.78000000  1.0
  N  N178  1  0.10994000  0.99246000  0.73346000  1.0
  N  N179  1  0.07514000  0.95474000  0.76684000  1.0
  N  N180  1  0.68816000  0.23172000  0.28942000  1.0
  N  N181  1  0.64128000  0.18446000  0.29018000  1.0
  N  N182  1  0.55532000  0.13034000  0.26573500  1.0
  N  N183  1  0.59498000  0.09048000  0.29172000  1.0
  N  N184  1  0.38400000  0.72350000  0.74926000  1.0
  N  N185  1  0.43104000  0.67654500  0.75124000  1.0
  N  N186  1  0.52128000  0.62538000  0.76494000  1.0
  N  N187  1  0.48144000  0.58564000  0.73909000  1.0
  N  N188  1  0.97850000  0.45252000  0.35078000  1.0
  N  N189  1  0.96616000  0.48652000  0.29860000  1.0
  N  N190  1  0.91282000  0.54014000  0.23064000  1.0
  N  N191  1  0.96256000  0.51406000  0.20442000  1.0
  N  N192  1  0.08890500  0.02456000  0.97912000  1.0
  N  N193  1  0.03998000  0.01376000  0.02008000  1.0
  N  N194  1  0.97456000  0.96768000  0.08320000  1.0
  N  N195  1  0.96613500  0.03014000  0.08718000  1.0
  N  N196  1  0.54986000  0.02988000  0.45754000  1.0
  N  N197  1  0.56596000  0.03536000  0.51774000  1.0
  N  N198  1  0.56012000  0.04106000  0.61540000  1.0
  N  N199  1  0.62096000  0.03792500  0.60174000  1.0
  N  N200  1  0.52056000  0.55772000  0.95746000  1.0
  N  N201  1  0.57536000  0.56828000  0.99132000  1.0
  N  N202  1  0.64692000  0.61334000  0.04922000  1.0
  N  N203  1  0.65741500  0.55118000  0.04950000  1.0
  N  N204  1  0.01136000  0.47782000  0.47468000  1.0
  N  N205  1  0.00370000  0.53262000  0.50904000  1.0
  N  N206  1  0.02288000  0.62074000  0.55805000  1.0
  N  N207  1  0.96028000  0.61412000  0.55506000  1.0
  N  N208  1  0.48830000  0.08166000  0.02000000  1.0
  N  N209  1  0.55462500  0.08337500  0.02391500  1.0
  N  N210  1  0.65449500  0.05338000  0.02772000  1.0
  N  N211  1  0.65336000  0.11656000  0.02694000  1.0
  N  N212  1  0.50704000  0.54462000  0.58002000  1.0
  N  N213  1  0.49206000  0.55008000  0.51952000  1.0
  N  N214  1  0.43802000  0.55514000  0.43524000  1.0
  N  N215  1  0.49942000  0.55889000  0.42252000  1.0
  N  N216  1  0.96670000  0.51894000  0.07930000  1.0
  N  N217  1  0.02370500  0.51336000  0.04798000  1.0
  N  N218  1  0.11338000  0.53634000  0.00346000  1.0
  N  N219  1  0.10838000  0.47348000  0.00518000  1.0
  N  N220  1  0.08810500  0.03942000  0.47400000  1.0
  N  N221  1  0.07260000  0.06120000  0.53094000  1.0
  N  N222  1  0.07868000  0.09674500  0.62284000  1.0
  N  N223  1  0.01804000  0.08732500  0.61158000  1.0
  N  N224  1  0.80398000  0.27760000  0.05086000  1.0
  N  N225  1  0.80420000  0.29288000  0.11152000  1.0
  N  N226  1  0.83563500  0.31098000  0.20370000  1.0
  N  N227  1  0.77496000  0.32644000  0.20056000  1.0
  N  N228  1  0.28722000  0.79736000  0.67510000  1.0
  N  N229  1  0.28322000  0.79726000  0.61300000  1.0
  N  N230  1  0.28622000  0.82666000  0.51868000  1.0
  N  N231  1  0.27046000  0.76614000  0.51990000  1.0
  N  N232  1  0.30416000  0.79421500  0.89560000  1.0
  N  N233  1  0.30180000  0.79196000  0.95774000  1.0
  N  N234  1  0.32862000  0.79592000  0.05262000  1.0
  N  N235  1  0.26696000  0.78478000  0.05002000  1.0
  N  N236  1  0.80505500  0.30426000  0.39270500  1.0
  N  N237  1  0.77088000  0.29640000  0.44558000  1.0
  N  N238  1  0.73740000  0.25742000  0.53130000  1.0
  N  N239  1  0.72258500  0.31816500  0.53056500  1.0
  N  N240  1  0.31434000  0.30478000  0.21580000  1.0
  N  N241  1  0.30620000  0.29802000  0.15426000  1.0
  N  N242  1  0.26232000  0.29195500  0.06512000  1.0
  N  N243  1  0.32428000  0.29534000  0.05736000  1.0
  N  N244  1  0.27925500  0.29614000  0.57858000  1.0
  N  N245  1  0.30788000  0.29980000  0.63472000  1.0
  N  N246  1  0.35540000  0.27382000  0.71898000  1.0
  N  N247  1  0.34854000  0.33609500  0.71866000  1.0
  N  N248  1  0.79690500  0.78808000  0.97210000  1.0
  N  N249  1  0.79892000  0.80170000  0.91120000  1.0
  N  N250  1  0.77046000  0.82594000  0.81946000  1.0
  N  N251  1  0.83312000  0.82262000  0.82051500  1.0
  N  N252  1  0.72652000  0.79660000  0.38632000  1.0
  N  N253  1  0.78716000  0.79348000  0.41172000  1.0
  N  N254  1  0.87928000  0.75808000  0.44510000  1.0
  N  N255  1  0.88138000  0.82062000  0.44700000  1.0
  O  O256  1  0.03474000  0.33770000  0.04082000  1.0
  O  O257  1  0.06410000  0.39820000  0.12086000  1.0
  O  O258  1  0.14010000  0.27244000  0.11672000  1.0
  O  O259  1  0.17272000  0.32648000  0.19678000  1.0
  O  O260  1  0.03706000  0.16720000  0.17092000  1.0
  O  O261  1  0.07452000  0.22842000  0.24420000  1.0
  O  O262  1  0.96910000  0.17008000  0.06712000  1.0
  O  O263  1  0.06632000  0.16162000  0.04424000  1.0
  O  O264  1  0.05822000  0.42032000  0.17622000  1.0
  O  O265  1  0.03272000  0.37428000  0.25856000  1.0
  O  O266  1  0.93354000  0.23382000  0.09290000  1.0
  O  O267  1  0.96576000  0.29930000  0.16440000  1.0
  O  O268  1  0.22686000  0.05762500  0.54268000  1.0
  O  O269  1  0.20584000  0.08880000  0.63112500  1.0
  O  O270  1  0.32954000  0.15716000  0.60304000  1.0
  O  O271  1  0.32096000  0.14054000  0.69508000  1.0
  O  O272  1  0.40502000  0.02686500  0.66858000  1.0
  O  O273  1  0.33986000  0.07622000  0.72542000  1.0
  O  O274  1  0.42882000  0.03430000  0.61946000  1.0
  O  O275  1  0.41054000  0.04950000  0.52863000  1.0
  O  O276  1  0.21662000  0.05990000  0.68518000  1.0
  O  O277  1  0.27030000  0.97345500  0.68702000  1.0
  O  O278  1  0.33176000  0.95038000  0.54886000  1.0
  O  O279  1  0.29538000  0.94656000  0.63346000  1.0
  O  O280  1  0.59312000  0.25605000  0.01753000  1.0
  O  O281  1  0.54120500  0.21042000  0.08746000  1.0
  O  O282  1  0.45544000  0.33038000  0.07908000  1.0
  O  O283  1  0.44986000  0.28150000  0.16450000  1.0
  O  O284  1  0.55952000  0.44084000  0.12292000  1.0
  O  O285  1  0.53496000  0.38566000  0.19758000  1.0
  O  O286  1  0.64446000  0.41434000  0.04190000  1.0
  O  O287  1  0.55208000  0.42286000  0.00740000  1.0
  O  O288  1  0.51014000  0.24488000  0.20106000  1.0
  O  O289  1  0.60940000  0.26730000  0.19374000  1.0
  O  O290  1  0.67620000  0.35936000  0.07746000  1.0
  O  O291  1  0.64310000  0.30158000  0.15126000  1.0
  O  O292  1  0.31278000  0.54898000  0.50853500  1.0
  O  O293  1  0.37410000  0.53606000  0.58318000  1.0
  O  O294  1  0.26382000  0.43914000  0.61422000  1.0
  O  O295  1  0.33360000  0.46482000  0.68104000  1.0
  O  O296  1  0.15470000  0.55446000  0.65322000  1.0
  O  O297  1  0.22704000  0.53784500  0.71714000  1.0
  O  O298  1  0.16046000  0.60822000  0.54192000  1.0
  O  O299  1  0.15058000  0.50898000  0.53704000  1.0
  O  O300  1  0.36394000  0.53032000  0.69460000  1.0
  O  O301  1  0.33032000  0.62464000  0.67368000  1.0
  O  O302  1  0.21528000  0.64896000  0.55974000  1.0
  O  O303  1  0.28632000  0.64520000  0.62856000  1.0
  O  O304  1  0.57864000  0.74274000  0.02550000  1.0
  O  O305  1  0.56662000  0.69916000  0.93912000  1.0
  O  O306  1  0.65220000  0.83791000  0.93298000  1.0
  O  O307  1  0.64182000  0.78050000  0.85390000  1.0
  O  O308  1  0.51538000  0.92816000  0.92658000  1.0
  O  O309  1  0.53636000  0.88020000  0.84318000  1.0
  O  O310  1  0.53544000  0.94696000  0.97626000  1.0
  O  O311  1  0.60230000  0.91190000  0.03756000  1.0
  O  O312  1  0.57052000  0.74252000  0.82156000  1.0
  O  O313  1  0.47550000  0.75288000  0.85228000  1.0
  O  O314  1  0.45676000  0.83582000  0.02530000  1.0
  O  O315  1  0.45048000  0.79790000  0.93622000  1.0
  O  O316  1  0.82724000  0.55874500  0.52254000  1.0
  O  O317  1  0.87864000  0.53244000  0.44396000  1.0
  O  O318  1  0.74890000  0.65092000  0.42530000  1.0
  O  O319  1  0.84216000  0.63008000  0.41588000  1.0
  O  O320  1  0.66440000  0.52932000  0.37976000  1.0
  O  O321  1  0.74522000  0.54708000  0.32230000  1.0
  O  O322  1  0.63478000  0.53816500  0.42482000  1.0
  O  O323  1  0.64758000  0.56534000  0.51370000  1.0
  O  O324  1  0.80579500  0.54196000  0.32122000  1.0
  O  O325  1  0.87584000  0.53112000  0.38758000  1.0
  O  O326  1  0.72028000  0.45104000  0.50354000  1.0
  O  O327  1  0.76640000  0.43934000  0.42290000  1.0
  O  O328  1  0.03390000  0.83498000  0.04068000  1.0
  O  O329  1  0.03456000  0.88766000  0.95914000  1.0
  O  O330  1  0.94100000  0.76581500  0.93634000  1.0
  O  O331  1  0.96384000  0.82698000  0.86290000  1.0
  O  O332  1  0.06238000  0.65990000  0.91718000  1.0
  O  O333  1  0.05302000  0.72040000  0.84270000  1.0
  O  O334  1  0.10012000  0.67312000  0.02530000  1.0
  O  O335  1  0.00242000  0.66450000  0.02028000  1.0
  O  O336  1  0.03296000  0.85568000  0.84210000  1.0
  O  O337  1  0.12758000  0.83672000  0.87376500  1.0
  O  O338  1  0.14612000  0.73548000  0.01006000  1.0
  O  O339  1  0.14874000  0.79594000  0.93342000  1.0
  O  O340  1  0.74091500  0.04306000  0.53754000  1.0
  O  O341  1  0.69074000  0.02154000  0.45556000  1.0
  O  O342  1  0.83826000  0.95097000  0.45616500  1.0
  O  O343  1  0.77436000  0.93420000  0.38344000  1.0
  O  O344  1  0.91772000  0.07656000  0.42084000  1.0
  O  O345  1  0.86406000  0.04705500  0.34174000  1.0
  O  O346  1  0.93772000  0.07326000  0.47362000  1.0
  O  O347  1  0.89972000  0.03840000  0.55490000  1.0
  O  O348  1  0.71460000  0.03588000  0.33372000  1.0
  O  O349  1  0.73736000  0.12424000  0.37196000  1.0
  O  O350  1  0.82570000  0.15506000  0.51302000  1.0
  O  O351  1  0.78306000  0.14428000  0.42626500  1.0
