# generated using pymatgen
data_Cd(CO)4
_symmetry_space_group_name_H-M   'P 1'
_cell_length_a   18.12510000
_cell_length_b   24.14363488
_cell_length_c   24.14363488
_cell_angle_alpha   81.90036178
_cell_angle_beta   67.95344749
_cell_angle_gamma   67.95344749
_symmetry_Int_Tables_number   1
_chemical_formula_structural   Cd(CO)4
_chemical_formula_sum   'Cd24 C96 O96'
_cell_volume   9076.78351198
_cell_formula_units_Z   24
loop_
 _symmetry_equiv_pos_site_id
 _symmetry_equiv_pos_as_xyz
  1  'x, y, z'
loop_
 _atom_site_type_symbol
 _atom_site_label
 _atom_site_symmetry_multiplicity
 _atom_site_fract_x
 _atom_site_fract_y
 _atom_site_fract_z
 _atom_site_occupancy
  C  C0  1  0.73710000  0.32604000  0.23916000  1.0
  C  C1  1  0.64726000  0.46375500  0.13322500  1.0
  C  C2  1  0.76731000  0.48965000  0.26649000  1.0
  C  C3  1  0.93646500  0.31879500  0.08671500  1.0
  C  C4  1  0.94388000  0.28382000  0.32130000  1.0
  C  C5  1  0.94759500  0.42138500  0.15422500  1.0
  C  C6  1  0.88198000  0.73330000  0.35350000  1.0
  C  C7  1  0.83412000  0.83934250  0.49116750  1.0
  C  C8  1  0.68806000  0.70610750  0.51709250  1.0
  C  C9  1  0.68897500  0.88583500  0.34669500  1.0
  C  C10  1  0.71734000  0.65122000  0.31126000  1.0
  C  C11  1  0.57613000  0.81833000  0.44871000  1.0
  C  C12  1  0.32978000  0.61901000  0.76085000  1.0
  C  C13  1  0.27169750  0.48131250  0.86675250  1.0
  C  C14  1  0.55092500  0.45541500  0.73349500  1.0
  C  C15  1  0.36944500  0.62626000  0.91329000  1.0
  C  C16  1  0.57650000  0.66124000  0.67868000  1.0
  C  C17  1  0.55068500  0.52361000  0.84578000  1.0
  C  C18  1  0.99623000  0.21166000  0.64656000  1.0
  C  C19  1  0.19205000  0.10578250  0.50891750  1.0
  C  C20  1  0.93867500  0.23902500  0.48286500  1.0
  C  C21  1  0.94959500  0.05918500  0.65344500  1.0
  C  C22  1  0.70732500  0.29382000  0.68873000  1.0
  C  C23  1  0.87072000  0.12669500  0.55119500  1.0
  C  C24  1  0.64279500  0.21166500  0.35342500  1.0
  C  C25  1  0.70090000  0.10580000  0.49114000  1.0
  C  C26  1  0.42155250  0.23901500  0.51713000  1.0
  C  C27  1  0.60305000  0.05918500  0.34655500  1.0
  C  C28  1  0.39605250  0.29382750  0.31126750  1.0
  C  C29  1  0.42194000  0.12670250  0.44872750  1.0
  C  C30  1  0.09063000  0.61901000  0.23913000  1.0
  C  C31  1  0.13843500  0.48135500  0.13321500  1.0
  C  C32  1  0.28443000  0.45542000  0.26648000  1.0
  C  C33  1  0.28289000  0.62627500  0.08674500  1.0
  C  C34  1  0.25517500  0.66123500  0.32133500  1.0
  C  C35  1  0.39647000  0.52370500  0.15421500  1.0
  C  C36  1  0.23547500  0.73331000  0.64650000  1.0
  C  C37  1  0.32530750  0.83932750  0.50882750  1.0
  C  C38  1  0.20515000  0.70610000  0.48292000  1.0
  C  C39  1  0.03567000  0.88584000  0.65330000  1.0
  C  C40  1  0.02860000  0.65122000  0.68874000  1.0
  C  C41  1  0.02479500  0.81833750  0.55133250  1.0
  C  C42  1  0.97626000  0.32604000  0.76084000  1.0
  C  C43  1  0.78048500  0.46380000  0.86675000  1.0
  C  C44  1  0.03379000  0.48965000  0.73353000  1.0
  C  C45  1  0.02338000  0.31878000  0.91326000  1.0
  C  C46  1  0.26518500  0.28382500  0.67868500  1.0
  C  C47  1  0.10182750  0.42139000  0.84577500  1.0
  C  C48  1  0.97175000  0.25517000  0.36989000  1.0
  C  C49  1  0.97527000  0.24355000  0.41927000  1.0
  C  C50  1  0.71811500  0.60262500  0.28262500  1.0
  C  C51  1  0.72620000  0.55325500  0.27100500  1.0
  C  C52  1  0.66560000  0.70154500  0.58069500  1.0
  C  C53  1  0.62432000  0.68988500  0.63007500  1.0
  C  C54  1  0.57794250  0.39180750  0.72898750  1.0
  C  C55  1  0.63085500  0.34242500  0.71736500  1.0
  C  C56  1  0.34823000  0.34243000  0.28263000  1.0
  C  C57  1  0.30693000  0.39181000  0.27101000  1.0
  C  C58  1  0.25439500  0.68987750  0.36993250  1.0
  C  C59  1  0.24629500  0.70153500  0.41931500  1.0
  C  C60  1  0.99719000  0.55325000  0.72901000  1.0
  C  C61  1  0.00074000  0.60262500  0.71737500  1.0
  C  C62  1  0.39454250  0.24355250  0.58072250  1.0
  C  C63  1  0.34164000  0.25518000  0.63010000  1.0
  C  C64  1  0.67633000  0.24733250  0.30532750  1.0
  C  C65  1  0.71601000  0.27791750  0.27478250  1.0
  C  C66  1  0.95118000  0.69767500  0.30536500  1.0
  C  C67  1  0.02143000  0.66710500  0.27479500  1.0
  C  C68  1  0.25654500  0.69768000  0.69463000  1.0
  C  C69  1  0.29622500  0.66712500  0.72520500  1.0
  C  C70  1  0.99078000  0.27793000  0.72521000  1.0
  C  C71  1  0.98165000  0.24734000  0.69466000  1.0
  C  C72  1  0.01123500  0.44972500  0.13376500  1.0
  C  C73  1  0.06927500  0.46388000  0.13365000  1.0
  C  C74  1  0.41195500  0.83889750  0.49128250  1.0
  C  C75  1  0.48414750  0.83880250  0.47709250  1.0
  C  C76  1  0.69426000  0.48142500  0.86631500  1.0
  C  C77  1  0.62215000  0.49545000  0.86633000  1.0
  C  C78  1  0.76947000  0.10627500  0.50879500  1.0
  C  C79  1  0.82759750  0.10620750  0.52280750  1.0
  C  C80  1  0.35036500  0.10630750  0.47720250  1.0
  C  C81  1  0.27828750  0.10612500  0.49155000  1.0
  C  C82  1  0.48845000  0.49540000  0.13376000  1.0
  C  C83  1  0.56066000  0.48115500  0.13360500  1.0
  C  C84  1  0.96120500  0.83878500  0.52294500  1.0
  C  C85  1  0.90327000  0.83895000  0.50865000  1.0
  C  C86  1  0.20300000  0.46380750  0.86633250  1.0
  C  C87  1  0.14504000  0.44969250  0.86624750  1.0
  C  C88  1  0.00640000  0.31060500  0.97379500  1.0
  C  C89  1  0.98007000  0.31067000  0.02617000  1.0
  C  C90  1  0.62782250  0.99867500  0.33864000  1.0
  C  C91  1  0.65360000  0.94633500  0.33854500  1.0
  C  C92  1  0.31828000  0.63444000  0.02620000  1.0
  C  C93  1  0.34437500  0.63439500  0.97383500  1.0
  C  C94  1  0.99217000  0.94633500  0.66144500  1.0
  C  C95  1  0.96643500  0.99868000  0.66137000  1.0
  Cd  Cd96  1  0.92957500  0.30945000  0.20676000  1.0
  Cd  Cd97  1  0.76699500  0.41119500  0.17371500  1.0
  Cd  Cd98  1  0.84626000  0.38350500  0.26215500  1.0
  Cd  Cd99  1  0.70613250  0.76568000  0.33687500  1.0
  Cd  Cd100  1  0.76695500  0.79885000  0.43856000  1.0
  Cd  Cd101  1  0.71535750  0.71038000  0.41091500  1.0
  Cd  Cd102  1  0.47329500  0.63557500  0.79323500  1.0
  Cd  Cd103  1  0.37936250  0.53386750  0.82629750  1.0
  Cd  Cd104  1  0.51939500  0.56155500  0.73785500  1.0
  Cd  Cd105  1  0.83625750  0.17920750  0.66323750  1.0
  Cd  Cd106  1  0.03181500  0.14631250  0.56132750  1.0
  Cd  Cd107  1  0.86409500  0.23467250  0.58902750  1.0
  Cd  Cd108  1  0.49952250  0.17919750  0.33672750  1.0
  Cd  Cd109  1  0.59317250  0.14631250  0.43864250  1.0
  Cd  Cd110  1  0.45312000  0.23468750  0.41096250  1.0
  Cd  Cd111  1  0.26652500  0.63558000  0.20681000  1.0
  Cd  Cd112  1  0.20568000  0.53389500  0.17366500  1.0
  Cd  Cd113  1  0.25721000  0.56156000  0.26216000  1.0
  Cd  Cd114  1  0.04301000  0.76568000  0.66312000  1.0
  Cd  Cd115  1  0.20552250  0.79885500  0.56143000  1.0
  Cd  Cd116  1  0.12629000  0.71038000  0.58908000  1.0
  Cd  Cd117  1  0.13637250  0.30947750  0.79319750  1.0
  Cd  Cd118  1  0.94070500  0.41113500  0.82633500  1.0
  Cd  Cd119  1  0.10839500  0.38350500  0.73784500  1.0
  O  O120  1  0.98001000  0.25955000  0.26791000  1.0
  O  O121  1  0.87781000  0.33417000  0.33173000  1.0
  O  O122  1  0.87750500  0.44037000  0.13942000  1.0
  O  O123  1  0.95446000  0.38362500  0.19801500  1.0
  O  O124  1  0.80803000  0.33630500  0.22091500  1.0
  O  O125  1  0.68191000  0.36671000  0.22015000  1.0
  O  O126  1  0.66836000  0.49044000  0.16552000  1.0
  O  O127  1  0.70053500  0.40956500  0.11932500  1.0
  O  O128  1  0.73911000  0.45192500  0.25377500  1.0
  O  O129  1  0.83136000  0.46480500  0.28495500  1.0
  O  O130  1  0.86079500  0.36160500  0.10210500  1.0
  O  O131  1  0.97773500  0.28947500  0.12257500  1.0
  O  O132  1  0.70555000  0.70459500  0.28694500  1.0
  O  O133  1  0.73308500  0.64081000  0.36160000  1.0
  O  O134  1  0.62725250  0.83314250  0.46766250  1.0
  O  O135  1  0.60703500  0.77447000  0.41101000  1.0
  O  O136  1  0.80082000  0.75162750  0.36369250  1.0
  O  O137  1  0.89649500  0.75228000  0.39419000  1.0
  O  O138  1  0.78640500  0.80700500  0.51780500  1.0
  O  O139  1  0.83496500  0.85330250  0.43698750  1.0
  O  O140  1  0.75401000  0.71882000  0.47936000  1.0
  O  O141  1  0.64890000  0.68763000  0.49223000  1.0
  O  O142  1  0.72287500  0.87045000  0.38894000  1.0
  O  O143  1  0.67688000  0.84994500  0.31749500  1.0
  O  O144  1  0.53496500  0.68551000  0.73208000  1.0
  O  O145  1  0.57119000  0.61089000  0.66827000  1.0
  O  O146  1  0.48480500  0.50458500  0.86058500  1.0
  O  O147  1  0.56356000  0.56136500  0.80199500  1.0
  O  O148  1  0.39270500  0.60876000  0.77911000  1.0
  O  O149  1  0.29625500  0.57834000  0.77985000  1.0
  O  O150  1  0.35180250  0.45464750  0.83445750  1.0
  O  O151  1  0.25684750  0.53548750  0.88069750  1.0
  O  O152  1  0.47227500  0.49314750  0.74622250  1.0
  O  O153  1  0.60858000  0.48026000  0.71504000  1.0
  O  O154  1  0.35199000  0.58345000  0.89789000  1.0
  O  O155  1  0.41728000  0.65558000  0.87742000  1.0
  O  O156  1  0.72458750  0.24043250  0.71303250  1.0
  O  O157  1  0.76297250  0.30423750  0.63837750  1.0
  O  O158  1  0.95561250  0.11198750  0.53215750  1.0
  O  O159  1  0.82006750  0.17041750  0.58903750  1.0
  O  O160  1  0.94354750  0.19347250  0.63624250  1.0
  O  O161  1  0.07041750  0.19265500  0.60591000  1.0
  O  O162  1  0.13869750  0.13824000  0.48224500  1.0
  O  O163  1  0.15262750  0.09170000  0.56301500  1.0
  O  O164  1  0.97960750  0.22636000  0.52058500  1.0
  O  O165  1  0.85617000  0.25742000  0.50772000  1.0
  O  O166  1  0.00974500  0.07464000  0.61059000  1.0
  O  O167  1  0.87261500  0.09502500  0.68312500  1.0
  O  O168  1  0.43762500  0.24043500  0.28695500  1.0
  O  O169  1  0.40136000  0.30425000  0.36161000  1.0
  O  O170  1  0.48779500  0.11198750  0.46776250  1.0
  O  O171  1  0.40910500  0.17044250  0.41090750  1.0
  O  O172  1  0.57978500  0.19348500  0.36374500  1.0
  O  O173  1  0.67634000  0.19266250  0.39407750  1.0
  O  O174  1  0.62081750  0.13814500  0.51777000  1.0
  O  O175  1  0.71575750  0.09184000  0.43695500  1.0
  O  O176  1  0.50020750  0.22635250  0.47941250  1.0
  O  O177  1  0.36391000  0.25741000  0.49227000  1.0
  O  O178  1  0.62036750  0.07463500  0.38940000  1.0
  O  O179  1  0.55576000  0.09501000  0.31687000  1.0
  O  O180  1  0.26704000  0.68551000  0.26795000  1.0
  O  O181  1  0.23944000  0.61089000  0.33175000  1.0
  O  O182  1  0.34540000  0.50467500  0.13940500  1.0
  O  O183  1  0.36554000  0.56140500  0.19805500  1.0
  O  O184  1  0.17180500  0.60876500  0.22088500  1.0
  O  O185  1  0.07612500  0.57834500  0.22010500  1.0
  O  O186  1  0.18618000  0.45472500  0.16553500  1.0
  O  O187  1  0.13763000  0.53552000  0.11918000  1.0
  O  O188  1  0.21851000  0.49314000  0.25374000  1.0
  O  O189  1  0.32359000  0.48027000  0.28497000  1.0
  O  O190  1  0.24999000  0.58349500  0.10212500  1.0
  O  O191  1  0.29483000  0.65559000  0.12263000  1.0
  O  O192  1  0.99249500  0.70460000  0.71305000  1.0
  O  O193  1  0.09468500  0.64081500  0.63839500  1.0
  O  O194  1  0.09489750  0.83314250  0.53232250  1.0
  O  O195  1  0.01807500  0.77445000  0.58900000  1.0
  O  O196  1  0.16451000  0.75163500  0.63630500  1.0
  O  O197  1  0.29068250  0.75228250  0.60581250  1.0
  O  O198  1  0.30419000  0.80699750  0.48224250  1.0
  O  O199  1  0.27194250  0.85334750  0.56302750  1.0
  O  O200  1  0.23337250  0.71881750  0.52063750  1.0
  O  O201  1  0.14113000  0.68762500  0.50777500  1.0
  O  O202  1  0.11182250  0.87045000  0.61104500  1.0
  O  O203  1  0.99438500  0.84995000  0.68250000  1.0
  O  O204  1  0.24793500  0.25955500  0.73207500  1.0
  O  O205  1  0.20953500  0.33417000  0.66826000  1.0
  O  O206  1  0.01692500  0.44035500  0.86060500  1.0
  O  O207  1  0.15247250  0.38365250  0.80196250  1.0
  O  O208  1  0.02893500  0.33627500  0.77909500  1.0
  O  O209  1  0.90205000  0.36669000  0.77989000  1.0
  O  O210  1  0.83404500  0.49040000  0.83457000  1.0
  O  O211  1  0.81967500  0.40954000  0.88061000  1.0
  O  O212  1  0.99285000  0.45191000  0.74627000  1.0
  O  O213  1  0.11629000  0.46479500  0.71502500  1.0
  O  O214  1  0.96306000  0.36155000  0.89789000  1.0
  O  O215  1  0.10052000  0.28947000  0.87737000  1.0
