# generated using pymatgen
data_Co2H9C21(N5O2)3
_symmetry_space_group_name_H-M   'P 1'
_cell_length_a   35.70500000
_cell_length_b   41.65980000
_cell_length_c   41.66270000
_cell_angle_alpha   64.25800000
_cell_angle_beta   90.00400000
_cell_angle_gamma   90.00200000
_symmetry_Int_Tables_number   1
_chemical_formula_structural   Co2H9C21(N5O2)3
_chemical_formula_sum   'Co24 H108 C252 N180 O72'
_cell_volume   55821.58784318
_cell_formula_units_Z   12
loop_
 _symmetry_equiv_pos_site_id
 _symmetry_equiv_pos_as_xyz
  1  'x, y, z'
loop_
 _atom_site_type_symbol
 _atom_site_label
 _atom_site_symmetry_multiplicity
 _atom_site_fract_x
 _atom_site_fract_y
 _atom_site_fract_z
 _atom_site_occupancy
  Co  Co0  1  0.04784000  0.63670000  0.06857000  1.0
  Co  Co1  1  0.05053000  0.62630000  0.15679000  1.0
  Co  Co2  1  0.20900000  0.86091000  0.73284000  1.0
  Co  Co3  1  0.24908000  0.92221000  0.75982000  1.0
  Co  Co4  1  0.36479000  0.25159000  0.61810000  1.0
  Co  Co5  1  0.36943000  0.24423000  0.70523000  1.0
  Co  Co6  1  0.52330000  0.39623000  0.84955000  1.0
  Co  Co7  1  0.53628000  0.37686000  0.93963000  1.0
  Co  Co8  1  0.74318000  0.07253000  0.30620000  1.0
  Co  Co9  1  0.80141000  0.00883000  0.29757000  1.0
  Co  Co10  1  0.87830000  0.70377000  0.35859000  1.0
  Co  Co11  1  0.88643000  0.78493000  0.36469000  1.0
  Co  Co12  1  0.81615000  0.10993000  0.63180000  1.0
  Co  Co13  1  0.76945000  0.05430000  0.71061000  1.0
  Co  Co14  1  0.94192000  0.31716000  0.69023000  1.0
  Co  Co15  1  0.91643000  0.38879000  0.70875000  1.0
  Co  Co16  1  0.14324000  0.25754000  0.06129000  1.0
  Co  Co17  1  0.12888000  0.27604000  0.13496000  1.0
  Co  Co18  1  0.34236000  0.87583000  0.34959000  1.0
  Co  Co19  1  0.28684000  0.94116000  0.35828000  1.0
  Co  Co20  1  0.45278000  0.61259000  0.27348000  1.0
  Co  Co21  1  0.42513000  0.62257000  0.34947000  1.0
  Co  Co22  1  0.64526000  0.72538000  0.87793000  1.0
  Co  Co23  1  0.65695000  0.74976000  0.94811000  1.0
  H  H24  1  0.20030000  0.64649000  0.07960000  1.0
  H  H25  1  0.19633000  0.60613000  0.12021000  1.0
  H  H26  1  0.24591000  0.62982000  0.23024000  1.0
  H  H27  1  0.33713000  0.72739000  0.25377000  1.0
  H  H28  1  0.36983000  0.74208000  0.21703000  1.0
  H  H29  1  0.28699000  0.73105000  0.11454000  1.0
  H  H30  1  0.58320000  0.86057000  0.81924000  1.0
  H  H31  1  0.57428000  0.86523000  0.85996000  1.0
  H  H32  1  0.42769000  0.83558000  0.89043000  1.0
  H  H33  1  0.30075000  0.78686000  0.85798000  1.0
  H  H34  1  0.31289000  0.77121000  0.82513000  1.0
  H  H35  1  0.45694000  0.80949000  0.78545000  1.0
  H  H36  1  0.72223000  0.21070000  0.63850000  1.0
  H  H37  1  0.72810000  0.19386000  0.68621000  1.0
  H  H38  1  0.59161000  0.15292000  0.74514000  1.0
  H  H39  1  0.44901000  0.12452000  0.72487000  1.0
  H  H40  1  0.44646000  0.12856000  0.67967000  1.0
  H  H41  1  0.57901000  0.18062000  0.61492000  1.0
  H  H42  1  0.68248000  0.39880000  0.89995000  1.0
  H  H43  1  0.67021000  0.42961000  0.85483000  1.0
  H  H44  1  0.71470000  0.37462000  0.76533000  1.0
  H  H45  1  0.80498000  0.27173000  0.75824000  1.0
  H  H46  1  0.83366000  0.25424000  0.79741000  1.0
  H  H47  1  0.77156000  0.30190000  0.88659000  1.0
  H  H48  1  0.07945000  0.13815000  0.19167000  1.0
  H  H49  1  0.08159000  0.12999000  0.15228000  1.0
  H  H50  1  0.93839000  0.11583000  0.12233000  1.0
  H  H51  1  0.79358000  0.11931000  0.15661000  1.0
  H  H52  1  0.79115000  0.15481000  0.17056000  1.0
  H  H53  1  0.93633000  0.17058000  0.20931000  1.0
  H  H54  1  0.98704000  0.79313000  0.25769000  1.0
  H  H55  1  0.00776000  0.74973000  0.28152000  1.0
  H  H56  1  0.07003000  0.89112000  0.27301000  1.0
  H  H57  1  0.21316000  0.92625000  0.25075000  1.0
  H  H58  1  0.23476000  0.88566000  0.25380000  1.0
  H  H59  1  0.14237000  0.77581000  0.31817000  1.0
  H  H60  1  0.97003000  0.50562000  0.15873000  1.0
  H  H61  1  0.01258000  0.48924000  0.18348000  1.0
  H  H62  1  0.10559000  0.45805000  0.09326000  1.0
  H  H63  1  0.09593000  0.39872000  0.99786000  1.0
  H  H64  1  0.05021000  0.37913000  0.00337000  1.0
  H  H65  1  0.96950000  0.43633000  0.07573000  1.0
  H  H66  1  0.33957000  0.82050000  0.49645000  1.0
  H  H67  1  0.28981000  0.81561000  0.49328000  1.0
  H  H68  1  0.21994000  0.90300000  0.54056000  1.0
  H  H69  1  0.24125000  0.98911000  0.60658000  1.0
  H  H70  1  0.29008000  0.98704000  0.61841000  1.0
  H  H71  1  0.35857000  0.90486000  0.56417000  1.0
  H  H72  1  0.44609000  0.37273000  0.62089000  1.0
  H  H73  1  0.40114000  0.38814000  0.62783000  1.0
  H  H74  1  0.33346000  0.45407000  0.49771000  1.0
  H  H75  1  0.34949000  0.49863000  0.35563000  1.0
  H  H76  1  0.39242000  0.47941000  0.34888000  1.0
  H  H77  1  0.46270000  0.41623000  0.47832000  1.0
  H  H78  1  0.57825000  0.62253000  0.01864000  1.0
  H  H79  1  0.62175000  0.60308000  0.01423000  1.0
  H  H80  1  0.59849000  0.54845000  0.91689000  1.0
  H  H81  1  0.47749000  0.52427000  0.84305000  1.0
  H  H82  1  0.44351000  0.50328000  0.87777000  1.0
  H  H83  1  0.47297000  0.57268000  0.95797000  1.0
  H  H84  1  0.87255000  0.07567000  0.38029000  1.0
  H  H85  1  0.88454000  0.02879000  0.39800000  1.0
  H  H86  1  0.82683000  0.96731000  0.53134000  1.0
  H  H87  1  0.73706000  0.98236000  0.62850000  1.0
  H  H88  1  0.70935000  0.02134000  0.60360000  1.0
  H  H89  1  0.77389000  0.09207000  0.47197000  1.0
  H  H90  1  0.85929000  0.68520000  0.50651000  1.0
  H  H91  1  0.90950000  0.68807000  0.50604000  1.0
  H  H92  1  0.96415000  0.55764000  0.52731000  1.0
  H  H93  1  0.92440000  0.42251000  0.55272000  1.0
  H  H94  1  0.87515000  0.41777000  0.56260000  1.0
  H  H95  1  0.82356000  0.54722000  0.54217000  1.0
  H  H96  1  0.96689000  0.75522000  0.07534000  1.0
  H  H97  1  0.93599000  0.72300000  0.10718000  1.0
  H  H98  1  0.84571000  0.67390000  0.02940000  1.0
  H  H99  1  0.79898000  0.71627000  0.89141000  1.0
  H  H100  1  0.79860000  0.76400000  0.87016000  1.0
  H  H101  1  0.89309000  0.79777000  0.95089000  1.0
  H  H102  1  0.90482000  0.05564000  0.76880000  1.0
  H  H103  1  0.92414000  0.09296000  0.73069000  1.0
  H  H104  1  0.96325000  0.93359000  0.77137000  1.0
  H  H105  1  0.09541000  0.87045000  0.81556000  1.0
  H  H106  1  0.11513000  0.90407000  0.82715000  1.0
  H  H107  1  0.05768000  0.03290000  0.73852000  1.0
  H  H108  1  0.22802000  0.18959000  0.69875000  1.0
  H  H109  1  0.21777000  0.21876000  0.65260000  1.0
  H  H110  1  0.14877000  0.33692000  0.64835000  1.0
  H  H111  1  0.06925000  0.38498000  0.73171000  1.0
  H  H112  1  0.05973000  0.34707000  0.77315000  1.0
  H  H113  1  0.14698000  0.24037000  0.77480000  1.0
  H  H114  1  0.28512000  0.25510000  0.13759000  1.0
  H  H115  1  0.28082000  0.30229000  0.11208000  1.0
  H  H116  1  0.32992000  0.33669000  0.97692000  1.0
  H  H117  1  0.42640000  0.28411000  0.90611000  1.0
  H  H118  1  0.45893000  0.25592000  0.93967000  1.0
  H  H119  1  0.38228000  0.21716000  0.06203000  1.0
  H  H120  1  0.67134000  0.94167000  0.37892000  1.0
  H  H121  1  0.67679000  0.92498000  0.34583000  1.0
  H  H122  1  0.54662000  0.94977000  0.27425000  1.0
  H  H123  1  0.40865000  0.00634000  0.25968000  1.0
  H  H124  1  0.40515000  0.02719000  0.28962000  1.0
  H  H125  1  0.53581000  0.00325000  0.36192000  1.0
  H  H126  1  0.58496000  0.58795000  0.34248000  1.0
  H  H127  1  0.57149000  0.59616000  0.38023000  1.0
  H  H128  1  0.64049000  0.71493000  0.36857000  1.0
  H  H129  1  0.74998000  0.81000000  0.29746000  1.0
  H  H130  1  0.76928000  0.79686000  0.26493000  1.0
  H  H131  1  0.68763000  0.68582000  0.26993000  1.0
  C  C132  1  0.14850000  0.63924000  0.10776000  1.0
  C  C133  1  0.01509000  0.54273000  0.14317000  1.0
  C  C134  1  0.98223000  0.70113000  0.09101000  1.0
  C  C135  1  0.14163000  0.89942000  0.78356000  1.0
  C  C136  1  0.25503000  0.94693000  0.65656000  1.0
  C  C137  1  0.29061000  0.82400000  0.80452000  1.0
  C  C138  1  0.26940000  0.22889000  0.67245000  1.0
  C  C139  1  0.40107000  0.33695000  0.62789000  1.0
  C  C140  1  0.43020000  0.17489000  0.68555000  1.0
  C  C141  1  0.48948000  0.47026000  0.87898000  1.0
  C  C142  1  0.62848000  0.39121000  0.88191000  1.0
  C  C143  1  0.46951000  0.31149000  0.91979000  1.0
  C  C144  1  0.79355000  0.10209000  0.21273000  1.0
  C  C145  1  0.69794000  0.97750000  0.33145000  1.0
  C  C146  1  0.83392000  0.04452000  0.36736000  1.0
  C  C147  1  0.88459000  0.69751000  0.45630000  1.0
  C  C148  1  0.79575000  0.77335000  0.31545000  1.0
  C  C149  1  0.96594000  0.76395000  0.30980000  1.0
  C  C150  1  0.87871000  0.06658000  0.71906000  1.0
  C  C151  1  0.75695000  0.03072000  0.62863000  1.0
  C  C152  1  0.73834000  0.15597000  0.66591000  1.0
  C  C153  1  0.85470000  0.30108000  0.75450000  1.0
  C  C154  1  0.91047000  0.40586000  0.60735000  1.0
  C  C155  1  0.02138000  0.35471000  0.73135000  1.0
  C  C156  1  0.09070000  0.34810000  0.04214000  1.0
  C  C157  1  0.23473000  0.27229000  0.10762000  1.0
  C  C158  1  0.08780000  0.18435000  0.14300000  1.0
  C  C159  1  0.24543000  0.89793000  0.29760000  1.0
  C  C160  1  0.38495000  0.97362000  0.31000000  1.0
  C  C161  1  0.31400000  0.85763000  0.44817000  1.0
  C  C162  1  0.39761000  0.53118000  0.34728000  1.0
  C  C163  1  0.38003000  0.69000000  0.25793000  1.0
  C  C164  1  0.53446000  0.61746000  0.33573000  1.0
  C  C165  1  0.74998000  0.73999000  0.90069000  1.0
  C  C166  1  0.61149000  0.65479000  0.97332000  1.0
  C  C167  1  0.59412000  0.81414000  0.86691000  1.0
  C  C168  1  0.19015000  0.63516000  0.10759000  1.0
  C  C169  1  0.23096000  0.68132000  0.11393000  1.0
  C  C170  1  0.21359000  0.63750000  0.16361000  1.0
  C  C171  1  0.23874000  0.65744000  0.17254000  1.0
  C  C172  1  0.25421000  0.65190000  0.20552000  1.0
  C  C173  1  0.28188000  0.67639000  0.20415000  1.0
  C  C174  1  0.35337000  0.71898000  0.23596000  1.0
  C  C175  1  0.30315000  0.67882000  0.23066000  1.0
  C  C176  1  0.32114000  0.72203000  0.18082000  1.0
  C  C177  1  0.29328000  0.70410000  0.17233000  1.0
  C  C178  1  0.27769000  0.70975000  0.13940000  1.0
  C  C179  1  0.24992000  0.68537000  0.14077000  1.0
  C  C180  1  0.57175000  0.84719000  0.84673000  1.0
  C  C181  1  0.51671000  0.82856000  0.82081000  1.0
  C  C182  1  0.50414000  0.83962000  0.86604000  1.0
  C  C183  1  0.47051000  0.83147000  0.85503000  1.0
  C  C184  1  0.43394000  0.83017000  0.86782000  1.0
  C  C185  1  0.40603000  0.82118000  0.84945000  1.0
  C  C186  1  0.31363000  0.79459000  0.83137000  1.0
  C  C187  1  0.36799000  0.81630000  0.85526000  1.0
  C  C188  1  0.38054000  0.80497000  0.81018000  1.0
  C  C189  1  0.41406000  0.81398000  0.82061000  1.0
  C  C190  1  0.45065000  0.81527000  0.80782000  1.0
  C  C191  1  0.47855000  0.82435000  0.82614000  1.0
  C  C192  1  0.71723000  0.18752000  0.66463000  1.0
  C  C193  1  0.65200000  0.18243000  0.64426000  1.0
  C  C194  1  0.65738000  0.17042000  0.70029000  1.0
  C  C195  1  0.61984000  0.16749000  0.69426000  1.0
  C  C196  1  0.58888000  0.15905000  0.71720000  1.0
  C  C197  1  0.55418000  0.15880000  0.70152000  1.0
  C  C198  1  0.45413000  0.14243000  0.69629000  1.0
  C  C199  1  0.51874000  0.15063000  0.71596000  1.0
  C  C200  1  0.51330000  0.16243000  0.66000000  1.0
  C  C201  1  0.55071000  0.16638000  0.66574000  1.0
  C  C202  1  0.58168000  0.17488000  0.64278000  1.0
  C  C203  1  0.61638000  0.17514000  0.65846000  1.0
  C  C204  1  0.66890000  0.40131000  0.87494000  1.0
  C  C205  1  0.71320000  0.35288000  0.87849000  1.0
  C  C206  1  0.68891000  0.38439000  0.82632000  1.0
  C  C207  1  0.71466000  0.36190000  0.82198000  1.0
  C  C208  1  0.72664000  0.35880000  0.79137000  1.0
  C  C209  1  0.75549000  0.33412000  0.79675000  1.0
  C  C210  1  0.82247000  0.27925000  0.77598000  1.0
  C  C211  1  0.77364000  0.32401000  0.77336000  1.0
  C  C212  1  0.79826000  0.29298000  0.82548000  1.0
  C  C213  1  0.77118000  0.31421000  0.83007000  1.0
  C  C214  1  0.75913000  0.31724000  0.86067000  1.0
  C  C215  1  0.73022000  0.34183000  0.85531000  1.0
  C  C216  1  0.07094000  0.14824000  0.16328000  1.0
  C  C217  1  0.00687000  0.16096000  0.18043000  1.0
  C  C218  1  0.00767000  0.13766000  0.14282000  1.0
  C  C219  1  0.97057000  0.13974000  0.15093000  1.0
  C  C220  1  0.93789000  0.12804000  0.14056000  1.0
  C  C221  1  0.90461000  0.13258000  0.15600000  1.0
  C  C222  1  0.80427000  0.12874000  0.17607000  1.0
  C  C223  1  0.86809000  0.12376000  0.15253000  1.0
  C  C224  1  0.86711000  0.14760000  0.18968000  1.0
  C  C225  1  0.90401000  0.14773000  0.17982000  1.0
  C  C226  1  0.93672000  0.15933000  0.19027000  1.0
  C  C227  1  0.97003000  0.15470000  0.17490000  1.0
  C  C228  1  0.99790000  0.77384000  0.28405000  1.0
  C  C229  1  0.06273000  0.77576000  0.30682000  1.0
  C  C230  1  0.03161000  0.82549000  0.28714000  1.0
  C  C231  1  0.06771000  0.83330000  0.29326000  1.0
  C  C232  1  0.08523000  0.86617000  0.28465000  1.0
  C  C233  1  0.12419000  0.86483000  0.28954000  1.0
  C  C234  1  0.21995000  0.89813000  0.26902000  1.0
  C  C235  1  0.15033000  0.89184000  0.27935000  1.0
  C  C236  1  0.18159000  0.84222000  0.29861000  1.0
  C  C237  1  0.14413000  0.83311000  0.30192000  1.0
  C  C238  1  0.12660000  0.80024000  0.31047000  1.0
  C  C239  1  0.08760000  0.80155000  0.30578000  1.0
  C  C240  1  0.00101000  0.50531000  0.15641000  1.0
  C  C241  1  0.98909000  0.47491000  0.11662000  1.0
  C  C242  1  0.04762000  0.48372000  0.12468000  1.0
  C  C243  1  0.04716000  0.46584000  0.10354000  1.0
  C  C244  1  0.07643000  0.45369000  0.08922000  1.0
  C  C245  1  0.06530000  0.43519000  0.06961000  1.0
  C  C246  1  0.07431000  0.38350000  0.01789000  1.0
  C  C247  1  0.08598000  0.41941000  0.05243000  1.0
  C  C248  1  0.02748000  0.40950000  0.04543000  1.0
  C  C249  1  0.02790000  0.42903000  0.06498000  1.0
  C  C250  1  0.99864000  0.44128000  0.07920000  1.0
  C  C251  1  0.00976000  0.46006000  0.09854000  1.0
  C  C252  1  0.31277000  0.83533000  0.48761000  1.0
  C  C253  1  0.33157000  0.86944000  0.52239000  1.0
  C  C254  1  0.27192000  0.86840000  0.51253000  1.0
  C  C255  1  0.27614000  0.88735000  0.53241000  1.0
  C  C256  1  0.24965000  0.90349000  0.54553000  1.0
  C  C257  1  0.26427000  0.92020000  0.56563000  1.0
  C  C258  1  0.26521000  0.97082000  0.61878000  1.0
  C  C259  1  0.24687000  0.93842000  0.58226000  1.0
  C  C260  1  0.30644000  0.93900000  0.59270000  1.0
  C  C261  1  0.30236000  0.92063000  0.57222000  1.0
  C  C262  1  0.32888000  0.90456000  0.55902000  1.0
  C  C263  1  0.31426000  0.88794000  0.53880000  1.0
  C  C264  1  0.41587000  0.37417000  0.61405000  1.0
  C  C265  1  0.43540000  0.39539000  0.54993000  1.0
  C  C266  1  0.37981000  0.41164000  0.55827000  1.0
  C  C267  1  0.38487000  0.42551000  0.52192000  1.0
  C  C268  1  0.36116000  0.44600000  0.49356000  1.0
  C  C269  1  0.37579000  0.45526000  0.45944000  1.0
  C  C270  1  0.37987000  0.49511000  0.36197000  1.0
  C  C271  1  0.36070000  0.47478000  0.42610000  1.0
  C  C272  1  0.41625000  0.45847000  0.41776000  1.0
  C  C273  1  0.41132000  0.44484000  0.45411000  1.0
  C  C274  1  0.43504000  0.42437000  0.48247000  1.0
  C  C275  1  0.42041000  0.41512000  0.51659000  1.0
  C  C276  1  0.59728000  0.61906000  0.99926000  1.0
  C  C277  1  0.54096000  0.59625000  0.97892000  1.0
  C  C278  1  0.59495000  0.58505000  0.96191000  1.0
  C  C279  1  0.56823000  0.57103000  0.94777000  1.0
  C  C280  1  0.57161000  0.55343000  0.92589000  1.0
  C  C281  1  0.53776000  0.54291000  0.91629000  1.0
  C  C282  1  0.47398000  0.50613000  0.87179000  1.0
  C  C283  1  0.53049000  0.52601000  0.89493000  1.0
  C  C284  1  0.47656000  0.53567000  0.91326000  1.0
  C  C285  1  0.50329000  0.54930000  0.92781000  1.0
  C  C286  1  0.49987000  0.56728000  0.94937000  1.0
  C  C287  1  0.53372000  0.57796000  0.95884000  1.0
  C  C288  1  0.86121000  0.04810000  0.39283000  1.0
  C  C289  1  0.82086000  0.06611000  0.43190000  1.0
  C  C290  1  0.84317000  0.01228000  0.45718000  1.0
  C  C291  1  0.82253000  0.01699000  0.48278000  1.0
  C  C292  1  0.81555000  0.99406000  0.51863000  1.0
  C  C293  1  0.79288000  0.00817000  0.53688000  1.0
  C  C294  1  0.73849000  0.01120000  0.61005000  1.0
  C  C295  1  0.78025000  0.99352000  0.57160000  1.0
  C  C296  1  0.75696000  0.04695000  0.54583000  1.0
  C  C297  1  0.77814000  0.04239000  0.52049000  1.0
  C  C298  1  0.78528000  0.06537000  0.48471000  1.0
  C  C299  1  0.80814000  0.05135000  0.46654000  1.0
  C  C300  1  0.88520000  0.67828000  0.49613000  1.0
  C  C301  1  0.85908000  0.61614000  0.51794000  1.0
  C  C302  1  0.91956000  0.62062000  0.51164000  1.0
  C  C303  1  0.91108000  0.58500000  0.52360000  1.0
  C  C304  1  0.93407000  0.55537000  0.53074000  1.0
  C  C305  1  0.91534000  0.52266000  0.54230000  1.0
  C  C306  1  0.90206000  0.42739000  0.56865000  1.0
  C  C307  1  0.92852000  0.48882000  0.55079000  1.0
  C  C308  1  0.86807000  0.48436000  0.55724000  1.0
  C  C309  1  0.87669000  0.51980000  0.54641000  1.0
  C  C310  1  0.85370000  0.54942000  0.53923000  1.0
  C  C311  1  0.87242000  0.58213000  0.52765000  1.0
  C  C312  1  0.95277000  0.72920000  0.08273000  1.0
  C  C313  1  0.92400000  0.75859000  0.02141000  1.0
  C  C314  1  0.90338000  0.70548000  0.05538000  1.0
  C  C315  1  0.88363000  0.71709000  0.02387000  1.0
  C  C316  1  0.85561000  0.70057000  0.01271000  1.0
  C  C317  1  0.84162000  0.72082000  0.97826000  1.0
  C  C318  1  0.79145000  0.74028000  0.89521000  1.0
  C  C319  1  0.81577000  0.71272000  0.95827000  1.0
  C  C320  1  0.83593000  0.76613000  0.92474000  1.0
  C  C321  1  0.85456000  0.75492000  0.95676000  1.0
  C  C322  1  0.88269000  0.77136000  0.96785000  1.0
  C  C323  1  0.89675000  0.75109000  0.00222000  1.0
  C  C324  1  0.91287000  0.06547000  0.74032000  1.0
  C  C325  1  0.97880000  0.04894000  0.73272000  1.0
  C  C326  1  0.93802000  0.00618000  0.74737000  1.0
  C  C327  1  0.97280000  0.99090000  0.74943000  1.0
  C  C328  1  0.98353000  0.95504000  0.76249000  1.0
  C  C329  1  0.02227000  0.94865000  0.76558000  1.0
  C  C330  1  0.10715000  0.89786000  0.80466000  1.0
  C  C331  1  0.04207000  0.91717000  0.78119000  1.0
  C  C332  1  0.08274000  0.95990000  0.76754000  1.0
  C  C333  1  0.04825000  0.97594000  0.75669000  1.0
  C  C334  1  0.03753000  0.01179000  0.74372000  1.0
  C  C335  1  0.99881000  0.01822000  0.74020000  1.0
  C  C336  1  0.22926000  0.21756000  0.67790000  1.0
  C  C337  1  0.19299000  0.23203000  0.72187000  1.0
  C  C338  1  0.19366000  0.27343000  0.66744000  1.0
  C  C339  1  0.17037000  0.28536000  0.68640000  1.0
  C  C340  1  0.14869000  0.31641000  0.67553000  1.0
  C  C341  1  0.12649000  0.31881000  0.70219000  1.0
  C  C342  1  0.06034000  0.35660000  0.74377000  1.0
  C  C343  1  0.10204000  0.34487000  0.70120000  1.0
  C  C344  1  0.10113000  0.30321000  0.75550000  1.0
  C  C345  1  0.12595000  0.29223000  0.73693000  1.0
  C  C346  1  0.14766000  0.26122000  0.74780000  1.0
  C  C347  1  0.16992000  0.25886000  0.72117000  1.0
  C  C348  1  0.27598000  0.27621000  0.11144000  1.0
  C  C349  1  0.32239000  0.24909000  0.08481000  1.0
  C  C350  1  0.30006000  0.30066000  0.04840000  1.0
  C  C351  1  0.32693000  0.29193000  0.02972000  1.0
  C  C352  1  0.34083000  0.31088000  0.99501000  1.0
  C  C353  1  0.37025000  0.29435000  0.98555000  1.0
  C  C354  1  0.44261000  0.28108000  0.93004000  1.0
  C  C355  1  0.39047000  0.30497000  0.95439000  1.0
  C  C356  1  0.41320000  0.25376000  0.99117000  1.0
  C  C357  1  0.38473000  0.26156000  0.00900000  1.0
  C  C358  1  0.37076000  0.24257000  0.04365000  1.0
  C  C359  1  0.34124000  0.25902000  0.05305000  1.0
  C  C360  1  0.66960000  0.94890000  0.34996000  1.0
  C  C361  1  0.60734000  0.97693000  0.35096000  1.0
  C  C362  1  0.61199000  0.95402000  0.31320000  1.0
  C  C363  1  0.57525000  0.96470000  0.31205000  1.0
  C  C364  1  0.54434000  0.96136000  0.29293000  1.0
  C  C365  1  0.51023000  0.97392000  0.29978000  1.0
  C  C366  1  0.41204000  0.00200000  0.28780000  1.0
  C  C367  1  0.47505000  0.97582000  0.28539000  1.0
  C  C368  1  0.47037000  0.99884000  0.32307000  1.0
  C  C369  1  0.50725000  0.98863000  0.32387000  1.0
  C  C370  1  0.53816000  0.99191000  0.34304000  1.0
  C  C371  1  0.57228000  0.97938000  0.33616000  1.0
  C  C372  1  0.57315000  0.60797000  0.35066000  1.0
  C  C373  1  0.62308000  0.64887000  0.31136000  1.0
  C  C374  1  0.60282000  0.66133000  0.35383000  1.0
  C  C375  1  0.63256000  0.68391000  0.33825000  1.0
  C  C376  1  0.65030000  0.70902000  0.34714000  1.0
  C  C377  1  0.68203000  0.72550000  0.32676000  1.0
  C  C378  1  0.76118000  0.78715000  0.29336000  1.0
  C  C379  1  0.70587000  0.75106000  0.32788000  1.0
  C  C380  1  0.72613000  0.73849000  0.28549000  1.0
  C  C381  1  0.69499000  0.71748000  0.29966000  1.0
  C  C382  1  0.67724000  0.69239000  0.29077000  1.0
  C  C383  1  0.64550000  0.67593000  0.31112000  1.0
  N  N384  1  0.09307000  0.63591000  0.12618000  1.0
  N  N385  1  0.12816000  0.63496000  0.13667000  1.0
  N  N386  1  0.09201000  0.63990000  0.09299000  1.0
  N  N387  1  0.12633000  0.64179000  0.08051000  1.0
  N  N388  1  0.02060000  0.66521000  0.08612000  1.0
  N  N389  1  0.99615000  0.69010000  0.06733000  1.0
  N  N390  1  0.03438000  0.59064000  0.14260000  1.0
  N  N391  1  0.02318000  0.55835000  0.16472000  1.0
  N  N392  1  0.02159000  0.66124000  0.11929000  1.0
  N  N393  1  0.99777000  0.68334000  0.12354000  1.0
  N  N394  1  0.03320000  0.59457000  0.10942000  1.0
  N  N395  1  0.02110000  0.56500000  0.10854000  1.0
  N  N396  1  0.19766000  0.90791000  0.76616000  1.0
  N  N397  1  0.17291000  0.91749000  0.78391000  1.0
  N  N398  1  0.18256000  0.88490000  0.75597000  1.0
  N  N399  1  0.14735000  0.87861000  0.76663000  1.0
  N  N400  1  0.24923000  0.85063000  0.76617000  1.0
  N  N401  1  0.26491000  0.81899000  0.78336000  1.0
  N  N402  1  0.24788000  0.92746000  0.71194000  1.0
  N  N403  1  0.26221000  0.95468000  0.68423000  1.0
  N  N404  1  0.26427000  0.87362000  0.77641000  1.0
  N  N405  1  0.29035000  0.85789000  0.80074000  1.0
  N  N406  1  0.23273000  0.90446000  0.70180000  1.0
  N  N407  1  0.23651000  0.91573000  0.66706000  1.0
  N  N408  1  0.32484000  0.23893000  0.68257000  1.0
  N  N409  1  0.29158000  0.23063000  0.69791000  1.0
  N  N410  1  0.32314000  0.24178000  0.64979000  1.0
  N  N411  1  0.28873000  0.23552000  0.64238000  1.0
  N  N412  1  0.39455000  0.21765000  0.65562000  1.0
  N  N413  1  0.41541000  0.19288000  0.65270000  1.0
  N  N414  1  0.38276000  0.28570000  0.66318000  1.0
  N  N415  1  0.39527000  0.31570000  0.66278000  1.0
  N  N416  1  0.39631000  0.21486000  0.68837000  1.0
  N  N417  1  0.41841000  0.18814000  0.70818000  1.0
  N  N418  1  0.38108000  0.28842000  0.63046000  1.0
  N  N419  1  0.39244000  0.32028000  0.60736000  1.0
  N  N420  1  0.51351000  0.41929000  0.90492000  1.0
  N  N421  1  0.50164000  0.44609000  0.91113000  1.0
  N  N422  1  0.50884000  0.42663000  0.87100000  1.0
  N  N423  1  0.49382000  0.45854000  0.85367000  1.0
  N  N424  1  0.50239000  0.35619000  0.88885000  1.0
  N  N425  1  0.47870000  0.33333333  0.88581000  1.0
  N  N426  1  0.57562000  0.38144000  0.90677000  1.0
  N  N427  1  0.61155000  0.38305000  0.91347000  1.0
  N  N428  1  0.50731000  0.34884000  0.92272000  1.0
  N  N429  1  0.48706000  0.32085000  0.94318000  1.0
  N  N430  1  0.57076000  0.38874000  0.87289000  1.0
  N  N431  1  0.60333000  0.39546000  0.85618000  1.0
  N  N432  1  0.79087000  0.05496000  0.26039000  1.0
  N  N433  1  0.80700000  0.06850000  0.22870000  1.0
  N  N434  1  0.76897000  0.07890000  0.26364000  1.0
  N  N435  1  0.76994000  0.10905000  0.23423000  1.0
  N  N436  1  0.78785000  0.05355000  0.33307000  1.0
  N  N437  1  0.80217000  0.06385000  0.35630000  1.0
  N  N438  1  0.74975000  0.00183000  0.31083000  1.0
  N  N439  1  0.73209000  0.97105000  0.32164000  1.0
  N  N440  1  0.80971000  0.02953000  0.32990000  1.0
  N  N441  1  0.83915000  0.02314000  0.35098000  1.0
  N  N442  1  0.72786000  0.02567000  0.31425000  1.0
  N  N443  1  0.69504000  0.01135000  0.32751000  1.0
  N  N444  1  0.88501000  0.73899000  0.40436000  1.0
  N  N445  1  0.88680000  0.73328000  0.43807000  1.0
  N  N446  1  0.88182000  0.70849000  0.40209000  1.0
  N  N447  1  0.88140000  0.68162000  0.43422000  1.0
  N  N448  1  0.91818000  0.73727000  0.33866000  1.0
  N  N449  1  0.94565000  0.73387000  0.31917000  1.0
  N  N450  1  0.84548000  0.77202000  0.34308000  1.0
  N  N451  1  0.81673000  0.79288000  0.32739000  1.0
  N  N452  1  0.92122000  0.76784000  0.34082000  1.0
  N  N453  1  0.95080000  0.78565000  0.32276000  1.0
  N  N454  1  0.84243000  0.74156000  0.34068000  1.0
  N  N455  1  0.81156000  0.74134000  0.32327000  1.0
  N  N456  1  0.82218000  0.06315000  0.70658000  1.0
  N  N457  1  0.84562000  0.05181000  0.73378000  1.0
  N  N458  1  0.83976000  0.08407000  0.67698000  1.0
  N  N459  1  0.87540000  0.08720000  0.68369000  1.0
  N  N460  1  0.77742000  0.12497000  0.65394000  1.0
  N  N461  1  0.76476000  0.15793000  0.64194000  1.0
  N  N462  1  0.76969000  0.04812000  0.66780000  1.0
  N  N463  1  0.75011000  0.02373000  0.66290000  1.0
  N  N464  1  0.75989000  0.10409000  0.68361000  1.0
  N  N465  1  0.73509000  0.12259000  0.69220000  1.0
  N  N466  1  0.78727000  0.06901000  0.63819000  1.0
  N  N467  1  0.77984000  0.05911000  0.61276000  1.0
  N  N468  1  0.89235000  0.34329000  0.72808000  1.0
  N  N469  1  0.86260000  0.33480000  0.74903000  1.0
  N  N470  1  0.90199000  0.31642000  0.72108000  1.0
  N  N471  1  0.87896000  0.28933000  0.73713000  1.0
  N  N472  1  0.97415000  0.33953000  0.71103000  1.0
  N  N473  1  0.00973000  0.33124000  0.71907000  1.0
  N  N474  1  0.91610000  0.38973000  0.66246000  1.0
  N  N475  1  0.90616000  0.41743000  0.63282000  1.0
  N  N476  1  0.96459000  0.36648000  0.71795000  1.0
  N  N477  1  0.99355000  0.37688000  0.73077000  1.0
  N  N478  1  0.92579000  0.36281000  0.65554000  1.0
  N  N479  1  0.92259000  0.37182000  0.62113000  1.0
  N  N480  1  0.11203000  0.30522000  0.08764000  1.0
  N  N481  1  0.09527000  0.33633000  0.07764000  1.0
  N  N482  1  0.11754000  0.29839000  0.05990000  1.0
  N  N483  1  0.10461000  0.32480000  0.03065000  1.0
  N  N484  1  0.11683000  0.22742000  0.10368000  1.0
  N  N485  1  0.10247000  0.19602000  0.10997000  1.0
  N  N486  1  0.17673000  0.27152000  0.11675000  1.0
  N  N487  1  0.20907000  0.27662000  0.12918000  1.0
  N  N488  1  0.11146000  0.23442000  0.13133000  1.0
  N  N489  1  0.09341000  0.20789000  0.15680000  1.0
  N  N490  1  0.18224000  0.26454000  0.08909000  1.0
  N  N491  1  0.21845000  0.26479000  0.08237000  1.0
  N  N492  1  0.27288000  0.91486000  0.33225000  1.0
  N  N493  1  0.24229000  0.92070000  0.31266000  1.0
  N  N494  1  0.29376000  0.89029000  0.32901000  1.0
  N  N495  1  0.27762000  0.87909000  0.30719000  1.0
  N  N496  1  0.32490000  0.87397000  0.39371000  1.0
  N  N497  1  0.33183000  0.84770000  0.42535000  1.0
  N  N498  1  0.33564000  0.94910000  0.33730000  1.0
  N  N499  1  0.35243000  0.98041000  0.32242000  1.0
  N  N500  1  0.30395000  0.89847000  0.39696000  1.0
  N  N501  1  0.29632000  0.88919000  0.43086000  1.0
  N  N502  1  0.35651000  0.92460000  0.33391000  1.0
  N  N503  1  0.38776000  0.93896000  0.31664000  1.0
  N  N504  1  0.41547000  0.58150000  0.34147000  1.0
  N  N505  1  0.39742000  0.55281000  0.36380000  1.0
  N  N506  1  0.42594000  0.57771000  0.31293000  1.0
  N  N507  1  0.41520000  0.54635000  0.31548000  1.0
  N  N508  1  0.48622000  0.61953000  0.30578000  1.0
  N  N509  1  0.52292000  0.61540000  0.30582000  1.0
  N  N510  1  0.40964000  0.65263000  0.30190000  1.0
  N  N511  1  0.38439000  0.67817000  0.29342000  1.0
  N  N512  1  0.47581000  0.62329000  0.33435000  1.0
  N  N513  1  0.50530000  0.62177000  0.35411000  1.0
  N  N514  1  0.42000000  0.64892000  0.27331000  1.0
  N  N515  1  0.40192000  0.67193000  0.24495000  1.0
  N  N516  1  0.69676000  0.74419000  0.92023000  1.0
  N  N517  1  0.73277000  0.74769000  0.92540000  1.0
  N  N518  1  0.69227000  0.73496000  0.89392000  1.0
  N  N519  1  0.72508000  0.73202000  0.88087000  1.0
  N  N520  1  0.62387000  0.76662000  0.87961000  1.0
  N  N521  1  0.60265000  0.79012000  0.85437000  1.0
  N  N522  1  0.63505000  0.70613000  0.95259000  1.0
  N  N523  1  0.62347000  0.68018000  0.98284000  1.0
  N  N524  1  0.62820000  0.77578000  0.90598000  1.0
  N  N525  1  0.60994000  0.80566000  0.89903000  1.0
  N  N526  1  0.63060000  0.69707000  0.92616000  1.0
  N  N527  1  0.61595000  0.66487000  0.93806000  1.0
  N  N528  1  0.20899000  0.65186000  0.12774000  1.0
  N  N529  1  0.32739000  0.70660000  0.21647000  1.0
  N  N530  1  0.53244000  0.83802000  0.84508000  1.0
  N  N531  1  0.35235000  0.80615000  0.83145000  1.0
  N  N532  1  0.67712000  0.17966000  0.66974000  1.0
  N  N533  1  0.49370000  0.15257000  0.69071000  1.0
  N  N534  1  0.68814000  0.37914000  0.86082000  1.0
  N  N535  1  0.79978000  0.29882000  0.79086000  1.0
  N  N536  1  0.03000000  0.15034000  0.16105000  1.0
  N  N537  1  0.84506000  0.13285000  0.17314000  1.0
  N  N538  1  0.02858000  0.79041000  0.29488000  1.0
  N  N539  1  0.18551000  0.87817000  0.28429000  1.0
  N  N540  1  0.01213000  0.48941000  0.13266000  1.0
  N  N541  1  0.06295000  0.40347000  0.03781000  1.0
  N  N542  1  0.30575000  0.85738000  0.50639000  1.0
  N  N543  1  0.27257000  0.94995000  0.59884000  1.0
  N  N544  1  0.41064000  0.39321000  0.57546000  1.0
  N  N545  1  0.38535000  0.47676000  0.40056000  1.0
  N  N546  1  0.57838000  0.60073000  0.98077000  1.0
  N  N547  1  0.49306000  0.52130000  0.89320000  1.0
  N  N548  1  0.84224000  0.04227000  0.42604000  1.0
  N  N549  1  0.75829000  0.01717000  0.57716000  1.0
  N  N550  1  0.88783000  0.63972000  0.50814000  1.0
  N  N551  1  0.89968000  0.46538000  0.55980000  1.0
  N  N552  1  0.92816000  0.73077000  0.05394000  1.0
  N  N553  1  0.81231000  0.74033000  0.92546000  1.0
  N  N554  1  0.94160000  0.04169000  0.73745000  1.0
  N  N555  1  0.07906000  0.92388000  0.78286000  1.0
  N  N556  1  0.20735000  0.24071000  0.68900000  1.0
  N  N557  1  0.08648000  0.33540000  0.73375000  1.0
  N  N558  1  0.29734000  0.27458000  0.08216000  1.0
  N  N559  1  0.41683000  0.28025000  0.95775000  1.0
  N  N560  1  0.63164000  0.96118000  0.33719000  1.0
  N  N561  1  0.45064000  0.99127000  0.29938000  1.0
  N  N562  1  0.59720000  0.63957000  0.33772000  1.0
  N  N563  1  0.73280000  0.75916000  0.30260000  1.0
  O  O564  1  0.23618000  0.70089000  0.07964000  1.0
  O  O565  1  0.19915000  0.60689000  0.18601000  1.0
  O  O566  1  0.30038000  0.65764000  0.26489000  1.0
  O  O567  1  0.33899000  0.75029000  0.15790000  1.0
  O  O568  1  0.53534000  0.82500000  0.79533000  1.0
  O  O569  1  0.50838000  0.84864000  0.89240000  1.0
  O  O570  1  0.34958000  0.81905000  0.88128000  1.0
  O  O571  1  0.37647000  0.79470000  0.78468000  1.0
  O  O572  1  0.66063000  0.19159000  0.61074000  1.0
  O  O573  1  0.67215000  0.16578000  0.73090000  1.0
  O  O574  1  0.51038000  0.14061000  0.74969000  1.0
  O  O575  1  0.49870000  0.16586000  0.62971000  1.0
  O  O576  1  0.72197000  0.34182000  0.91228000  1.0
  O  O577  1  0.67006000  0.40948000  0.80046000  1.0
  O  O578  1  0.76617000  0.33600000  0.73921000  1.0
  O  O579  1  0.81893000  0.26949000  0.85099000  1.0
  O  O580  1  0.01841000  0.17288000  0.20324000  1.0
  O  O581  1  0.02007000  0.12308000  0.12250000  1.0
  O  O582  1  0.85688000  0.10867000  0.13228000  1.0
  O  O583  1  0.85470000  0.15982000  0.21197000  1.0
  O  O584  1  0.07191000  0.74297000  0.31324000  1.0
  O  O585  1  0.00543000  0.84928000  0.27100000  1.0
  O  O586  1  0.14260000  0.92601000  0.26232000  1.0
  O  O587  1  0.20946000  0.81998000  0.30336000  1.0
  O  O588  1  0.95238000  0.47402000  0.11933000  1.0
  O  O589  1  0.07788000  0.49287000  0.13669000  1.0
  O  O590  1  0.12274000  0.41896000  0.05089000  1.0
  O  O591  1  0.99728000  0.39777000  0.03589000  1.0
  O  O592  1  0.36776000  0.86355000  0.52261000  1.0
  O  O593  1  0.23985000  0.86133000  0.50147000  1.0
  O  O594  1  0.21064000  0.94403000  0.58225000  1.0
  O  O595  1  0.33837000  0.94526000  0.60464000  1.0
  O  O596  1  0.46859000  0.38022000  0.55643000  1.0
  O  O597  1  0.34942000  0.41508000  0.57432000  1.0
  O  O598  1  0.32736000  0.48966000  0.41963000  1.0
  O  O599  1  0.44648000  0.45469000  0.40171000  1.0
  O  O600  1  0.51552000  0.60816000  0.99388000  1.0
  O  O601  1  0.63132000  0.58411000  0.95748000  1.0
  O  O602  1  0.55584000  0.51672000  0.87766000  1.0
  O  O603  1  0.44016000  0.53729000  0.91711000  1.0
  O  O604  1  0.81381000  0.09869000  0.40782000  1.0
  O  O605  1  0.86140000  0.98312000  0.46198000  1.0
  O  O606  1  0.78771000  0.96115000  0.59588000  1.0
  O  O607  1  0.73767000  0.07568000  0.54062000  1.0
  O  O608  1  0.82366000  0.62488000  0.51768000  1.0
  O  O609  1  0.95332000  0.63450000  0.50416000  1.0
  O  O610  1  0.96376000  0.48029000  0.54953000  1.0
  O  O611  1  0.83415000  0.47073000  0.56340000  1.0
  O  O612  1  0.94294000  0.78856000  0.01028000  1.0
  O  O613  1  0.89877000  0.67464000  0.08322000  1.0
  O  O614  1  0.79868000  0.68191000  0.96833000  1.0
  O  O615  1  0.84191000  0.79639000  0.89653000  1.0
  O  O616  1  0.99371000  0.07979000  0.72710000  1.0
  O  O617  1  0.90658000  0.98836000  0.75857000  1.0
  O  O618  1  0.02688000  0.88532000  0.79695000  1.0
  O  O619  1  0.11377000  0.97667000  0.76804000  1.0
  O  O620  1  0.19854000  0.20136000  0.74969000  1.0
  O  O621  1  0.19998000  0.29005000  0.63298000  1.0
  O  O622  1  0.09474000  0.37478000  0.67302000  1.0
  O  O623  1  0.09285000  0.28543000  0.78947000  1.0
  O  O624  1  0.32947000  0.22043000  0.11436000  1.0
  O  O625  1  0.28160000  0.33094000  0.03641000  1.0
  O  O626  1  0.38501000  0.33455000  0.92528000  1.0
  O  O627  1  0.43373000  0.22468000  0.00425000  1.0
  O  O628  1  0.61566000  0.98596000  0.37669000  1.0
  O  O629  1  0.62562000  0.93687000  0.29573000  1.0
  O  O630  1  0.46651000  0.96599000  0.26027000  1.0
  O  O631  1  0.45649000  0.01538000  0.34102000  1.0
  O  O632  1  0.62811000  0.63200000  0.29138000  1.0
  O  O633  1  0.58472000  0.65864000  0.38237000  1.0
  O  O634  1  0.70260000  0.76640000  0.34945000  1.0
  O  O635  1  0.74606000  0.73939000  0.25858000  1.0
