# generated using pymatgen
data_CdC5(OF)5
_symmetry_space_group_name_H-M   'P 1'
_cell_length_a   16.23817248
_cell_length_b   16.23670000
_cell_length_c   26.65570000
_cell_angle_alpha   90.00000000
_cell_angle_beta   90.00000000
_cell_angle_gamma   120.00300000
_symmetry_Int_Tables_number   1
_chemical_formula_structural   CdC5(OF)5
_chemical_formula_sum   'Cd24 C120 O120 F120'
_cell_volume   6086.14802327
_cell_formula_units_Z   24
loop_
 _symmetry_equiv_pos_site_id
 _symmetry_equiv_pos_as_xyz
  1  'x, y, z'
loop_
 _atom_site_type_symbol
 _atom_site_label
 _atom_site_symmetry_multiplicity
 _atom_site_fract_x
 _atom_site_fract_y
 _atom_site_fract_z
 _atom_site_occupancy
  C  C0  1  0.61922000  0.22894000  0.67096000  1.0
  C  C1  1  0.47706000  0.99986000  0.80992000  1.0
  C  C2  1  0.73100000  0.24598000  0.80072000  1.0
  C  C3  1  0.73552000  0.05630000  0.89497000  1.0
  C  C4  1  0.64630000  0.96002000  0.69904000  1.0
  C  C5  1  0.08388000  0.44952000  0.32451000  1.0
  C  C6  1  0.92734000  0.41664000  0.47918000  1.0
  C  C7  1  0.15418000  0.38840000  0.45343000  1.0
  C  C8  1  0.95482000  0.18540000  0.56754000  1.0
  C  C9  1  0.86742000  0.15752000  0.37694000  1.0
  C  C10  1  0.41428000  0.24594000  0.99436000  1.0
  C  C11  1  0.24492000  0.35774000  0.11351000  1.0
  C  C12  1  0.37962000  0.18350000  0.12915000  1.0
  C  C13  1  0.15940000  0.10152000  0.21988000  1.0
  C  C14  1  0.10796000  0.13714000  0.02734000  1.0
  C  C15  1  0.20382000  0.71884000  0.67809000  1.0
  C  C16  1  0.27338000  0.98300000  0.79682000  1.0
  C  C17  1  0.07334000  0.68808000  0.79805000  1.0
  C  C18  1  0.00460000  0.83640000  0.88037000  1.0
  C  C19  1  0.07816000  0.92794000  0.68794000  1.0
  C  C20  1  0.66414000  0.45428000  0.32294000  1.0
  C  C21  1  0.64720000  0.49728000  0.46046000  1.0
  C  C22  1  0.77996000  0.71316000  0.54848000  1.0
  C  C23  1  0.86186000  0.75984000  0.35082000  1.0
  C  C24  1  0.33316000  0.69678000  0.98728000  1.0
  C  C25  1  0.39086000  0.57886000  0.12992000  1.0
  C  C26  1  0.44590000  0.84106000  0.12716000  1.0
  C  C27  1  0.63234000  0.79174000  0.22286000  1.0
  C  C28  1  0.64398000  0.76012000  0.02624000  1.0
  C  C29  1  0.46210000  0.26548000  0.61921000  1.0
  C  C30  1  0.42534000  0.09674000  0.47311000  1.0
  C  C31  1  0.38914000  0.31450000  0.47692000  1.0
  C  C32  1  0.19646000  0.11400000  0.36841000  1.0
  C  C33  1  0.15116000  0.02874000  0.55995000  1.0
  C  C34  1  0.11714000  0.64040000  0.26383000  1.0
  C  C35  1  0.95136000  0.55582000  0.11553000  1.0
  C  C36  1  0.19346000  0.80244000  0.13003000  1.0
  C  C37  1  0.96624000  0.78064000  0.02495000  1.0
  C  C38  1  0.92952000  0.77908000  0.21998000  1.0
  C  C39  1  0.60336000  0.39398000  0.92853000  1.0
  C  C40  1  0.51090000  0.50212000  0.78531000  1.0
  C  C41  1  0.77228000  0.50156000  0.79811000  1.0
  C  C42  1  0.77776000  0.72630000  0.69769000  1.0
  C  C43  1  0.69952000  0.71540000  0.89185000  1.0
  C  C44  1  0.26818000  0.69388000  0.56595000  1.0
  C  C45  1  0.47886000  0.93416000  0.44059000  1.0
  C  C46  1  0.36662000  0.61578000  0.45464000  1.0
  C  C47  1  0.57932000  0.75872000  0.36816000  1.0
  C  C48  1  0.59640000  0.86418000  0.56054000  1.0
  C  C49  1  0.64274000  0.27310000  0.26121000  1.0
  C  C50  1  0.60126000  0.16162000  0.13254000  1.0
  C  C51  1  0.73042000  0.06828000  0.04447000  1.0
  C  C52  1  0.81576000  0.12118000  0.24274000  1.0
  C  C53  1  0.16886000  0.49914000  0.93685000  1.0
  C  C54  1  0.27080000  0.33944000  0.80485000  1.0
  C  C55  1  0.09302000  0.46482000  0.80684000  1.0
  C  C56  1  0.98548000  0.23244000  0.71292000  1.0
  C  C57  1  0.06156000  0.18838000  0.90119000  1.0
  C  C58  1  0.34938000  0.03894000  0.83432000  1.0
  C  C59  1  0.40214000  0.98440000  0.84777000  1.0
  C  C60  1  0.93874000  0.50216000  0.50665000  1.0
  C  C61  1  0.00304000  0.59556000  0.47640000  1.0
  C  C62  1  0.31474000  0.50754000  0.16320000  1.0
  C  C63  1  0.22802000  0.43350000  0.13339000  1.0
  C  C64  1  0.51244000  0.10048000  0.45115000  1.0
  C  C65  1  0.49412000  0.02120000  0.41353000  1.0
  C  C66  1  0.42002000  0.44500000  0.75632000  1.0
  C  C67  1  0.35134000  0.34230000  0.77611000  1.0
  C  C68  1  0.69476000  0.03188000  0.99100000  1.0
  C  C69  1  0.77278000  0.07478000  0.94917000  1.0
  C  C70  1  0.94198000  0.22536000  0.66090000  1.0
  C  C71  1  0.96132000  0.16418000  0.62286000  1.0
  C  C72  1  0.14396000  0.07008000  0.27470000  1.0
  C  C73  1  0.20404000  0.14830000  0.31391000  1.0
  C  C74  1  0.96698000  0.76164000  0.96873000  1.0
  C  C75  1  0.98606000  0.84678000  0.93515000  1.0
  C  C76  1  0.73962000  0.70078000  0.60184000  1.0
  C  C77  1  0.81416000  0.75652000  0.64378000  1.0
  C  C78  1  0.64056000  0.81528000  0.27889000  1.0
  C  C79  1  0.58898000  0.72916000  0.31510000  1.0
  C  C80  1  0.66410000  0.92320000  0.60351000  1.0
  C  C81  1  0.63238000  0.88500000  0.65944000  1.0
  C  C82  1  0.81526000  0.07836000  0.33851000  1.0
  C  C83  1  0.02608000  0.10962000  0.99102000  1.0
  C  C84  1  0.04820000  0.10576000  0.93348000  1.0
  C  C85  1  0.06526000  0.96238000  0.59205000  1.0
  C  C86  1  0.06968000  0.99234000  0.64944000  1.0
  C  C87  1  0.87302000  0.80598000  0.25508000  1.0
  C  C88  1  0.91180000  0.83502000  0.31094000  1.0
  C  C89  1  0.69942000  0.78680000  0.92948000  1.0
  C  C90  1  0.71854000  0.77248000  0.98738000  1.0
  C  C91  1  0.63124000  0.31308000  0.64159000  1.0
  C  C92  1  0.54678000  0.33036000  0.65045000  1.0
  C  C93  1  0.15508000  0.51150000  0.28635000  1.0
  C  C94  1  0.18250000  0.61716000  0.29221000  1.0
  C  C95  1  0.58474000  0.31614000  0.96450000  1.0
  C  C96  1  0.48136000  0.23192000  0.96177000  1.0
  C  C97  1  0.21296000  0.64102000  0.65301000  1.0
  C  C98  1  0.18476000  0.63266000  0.59763000  1.0
  C  C99  1  0.57212000  0.28526000  0.29191000  1.0
  C  C100  1  0.58618000  0.38636000  0.28894000  1.0
  C  C101  1  0.24814000  0.67508000  0.95635000  1.0
  C  C102  1  0.16322000  0.57424000  0.96704000  1.0
  C  C103  1  0.77036000  0.41244000  0.78006000  1.0
  C  C104  1  0.77342000  0.34500000  0.82083000  1.0
  C  C105  1  0.31702000  0.52836000  0.42232000  1.0
  C  C106  1  0.26036000  0.43356000  0.45256000  1.0
  C  C107  1  0.51274000  0.15378000  0.11135000  1.0
  C  C108  1  0.45924000  0.17588000  0.15195000  1.0
  C  C109  1  0.05664000  0.59752000  0.82083000  1.0
  C  C110  1  0.08636000  0.54482000  0.78349000  1.0
  C  C111  1  0.47088000  0.40946000  0.46336000  1.0
  C  C112  1  0.56248000  0.41970000  0.48576000  1.0
  C  C113  1  0.28698000  0.82754000  0.10681000  1.0
  C  C114  1  0.36570000  0.85332000  0.14690000  1.0
  C  C115  1  0.94116000  0.61656000  0.44410000  1.0
  C  C116  1  0.90788000  0.33674000  0.14173000  1.0
  C  C117  1  0.98044000  0.41704000  0.11099000  1.0
  C  C118  1  0.93408000  0.47026000  0.08580000  1.0
  C  C119  1  0.86522000  0.09884000  0.28487000  1.0
  Cd  Cd120  1  0.60026000  0.11142000  0.73146000  1.0
  Cd  Cd121  1  0.69100000  0.05790000  0.80441000  1.0
  Cd  Cd122  1  0.99214000  0.36630000  0.39615000  1.0
  Cd  Cd123  1  0.96200000  0.24342000  0.47976000  1.0
  Cd  Cd124  1  0.31600000  0.26338000  0.05520000  1.0
  Cd  Cd125  1  0.19368000  0.14576000  0.12967000  1.0
  Cd  Cd126  1  0.18480000  0.83156000  0.72821000  1.0
  Cd  Cd127  1  0.05492000  0.84318000  0.79216000  1.0
  Cd  Cd128  1  0.78022000  0.55612000  0.38261000  1.0
  Cd  Cd129  1  0.79310000  0.68496000  0.45660000  1.0
  Cd  Cd130  1  0.45320000  0.73156000  0.04993000  1.0
  Cd  Cd131  1  0.56924000  0.74838000  0.13634000  1.0
  Cd  Cd132  1  0.35088000  0.18232000  0.55181000  1.0
  Cd  Cd133  1  0.25434000  0.10740000  0.45500000  1.0
  Cd  Cd134  1  0.03314000  0.67342000  0.19990000  1.0
  Cd  Cd135  1  0.00434000  0.76562000  0.11369000  1.0
  Cd  Cd136  1  0.65334000  0.51896000  0.86656000  1.0
  Cd  Cd137  1  0.71304000  0.65018000  0.78124000  1.0
  Cd  Cd138  1  0.39610000  0.77946000  0.50959000  1.0
  Cd  Cd139  1  0.54460000  0.78592000  0.45524000  1.0
  Cd  Cd140  1  0.74530000  0.25160000  0.20430000  1.0
  Cd  Cd141  1  0.74868000  0.12152000  0.13498000  1.0
  Cd  Cd142  1  0.17688000  0.39666000  0.87497000  1.0
  Cd  Cd143  1  0.05254000  0.27438000  0.80022000  1.0
  F  F144  1  0.30798000  0.04972000  0.87747000  1.0
  F  F145  1  0.44600000  0.01640000  0.89393000  1.0
  F  F146  1  0.41116000  0.12868000  0.81549000  1.0
  F  F147  1  0.33902000  0.88770000  0.85235000  1.0
  F  F148  1  0.84922000  0.49010000  0.51542000  1.0
  F  F149  1  0.06948000  0.58768000  0.44728000  1.0
  F  F150  1  0.28614000  0.55776000  0.19340000  1.0
  F  F151  1  0.15030000  0.39168000  0.16520000  1.0
  F  F152  1  0.35044000  0.46358000  0.19381000  1.0
  F  F153  1  0.20684000  0.47506000  0.09397000  1.0
  F  F154  1  0.56982000  0.10160000  0.49003000  1.0
  F  F155  1  0.41640000  0.99876000  0.38325000  1.0
  F  F156  1  0.56262000  0.18696000  0.42703000  1.0
  F  F157  1  0.57282000  0.05290000  0.38265000  1.0
  F  F158  1  0.01420000  0.38102000  0.07424000  1.0
  F  F159  1  0.97192000  0.49930000  0.03830000  1.0
  F  F160  1  0.83670000  0.41152000  0.08006000  1.0
  F  F161  1  0.44608000  0.43870000  0.70763000  1.0
  F  F162  1  0.31412000  0.28128000  0.73539000  1.0
  F  F163  1  0.37434000  0.49780000  0.75368000  1.0
  F  F164  1  0.39626000  0.30728000  0.80618000  1.0
  F  F165  1  0.62526000  0.05474000  0.97994000  1.0
  F  F166  1  0.82508000  0.17236000  0.95564000  1.0
  F  F167  1  0.65306000  0.93420000  0.99035000  1.0
  F  F168  1  0.83262000  0.03884000  0.95501000  1.0
  F  F169  1  0.98032000  0.31680000  0.64201000  1.0
  F  F170  1  0.05150000  0.17798000  0.63122000  1.0
  F  F171  1  0.84478000  0.18730000  0.66592000  1.0
  F  F172  1  0.89566000  0.07018000  0.63164000  1.0
  F  F173  1  0.16352000  0.99672000  0.27901000  1.0
  F  F174  1  0.29882000  0.18996000  0.30043000  1.0
  F  F175  1  0.04964000  0.03618000  0.28508000  1.0
  F  F176  1  0.17840000  0.21782000  0.31229000  1.0
  F  F177  1  0.88140000  0.68318000  0.95510000  1.0
  F  F178  1  0.90910000  0.85920000  0.93768000  1.0
  F  F179  1  0.03822000  0.73994000  0.96069000  1.0
  F  F180  1  0.06508000  0.92664000  0.95367000  1.0
  F  F181  1  0.69606000  0.60502000  0.61340000  1.0
  F  F182  1  0.89270000  0.74568000  0.63712000  1.0
  F  F183  1  0.67058000  0.72678000  0.60183000  1.0
  F  F184  1  0.84226000  0.85110000  0.63864000  1.0
  F  F185  1  0.60532000  0.87642000  0.28615000  1.0
  F  F186  1  0.49850000  0.66864000  0.29672000  1.0
  F  F187  1  0.73470000  0.86332000  0.29163000  1.0
  F  F188  1  0.63800000  0.68006000  0.31726000  1.0
  F  F189  1  0.67684000  0.01384000  0.59945000  1.0
  F  F190  1  0.53666000  0.81720000  0.65950000  1.0
  F  F191  1  0.75094000  0.93026000  0.59388000  1.0
  F  F192  1  0.68154000  0.84122000  0.67557000  1.0
  F  F193  1  0.72416000  0.06366000  0.33324000  1.0
  F  F194  1  0.95724000  0.17482000  0.28822000  1.0
  F  F195  1  0.80746000  0.99626000  0.35862000  1.0
  F  F196  1  0.99406000  0.17346000  0.99783000  1.0
  F  F197  1  0.13030000  0.10038000  0.92884000  1.0
  F  F198  1  0.95434000  0.02094000  0.00593000  1.0
  F  F199  1  0.97486000  0.02518000  0.91201000  1.0
  F  F200  1  0.05490000  0.87262000  0.58883000  1.0
  F  F201  1  0.14522000  0.08298000  0.65780000  1.0
  F  F202  1  0.98580000  0.95728000  0.56974000  1.0
  F  F203  1  0.98948000  0.99638000  0.66152000  1.0
  F  F204  1  0.78138000  0.72956000  0.25609000  1.0
  F  F205  1  0.86966000  0.88050000  0.23225000  1.0
  F  F206  1  0.90504000  0.91260000  0.32601000  1.0
  F  F207  1  0.61262000  0.78226000  0.92392000  1.0
  F  F208  1  0.73136000  0.69484000  0.99217000  1.0
  F  F209  1  0.76696000  0.87638000  0.91366000  1.0
  F  F210  1  0.80148000  0.85090000  0.00339000  1.0
  F  F211  1  0.64010000  0.29842000  0.59113000  1.0
  F  F212  1  0.52044000  0.31778000  0.70052000  1.0
  F  F213  1  0.71500000  0.39290000  0.65612000  1.0
  F  F214  1  0.57430000  0.42324000  0.63804000  1.0
  F  F215  1  0.11778000  0.47706000  0.23939000  1.0
  F  F216  1  0.18322000  0.64110000  0.34216000  1.0
  F  F217  1  0.23568000  0.50346000  0.29162000  1.0
  F  F218  1  0.27372000  0.67422000  0.27390000  1.0
  F  F219  1  0.60752000  0.35430000  0.01232000  1.0
  F  F220  1  0.44706000  0.21648000  0.91321000  1.0
  F  F221  1  0.64580000  0.28276000  0.95264000  1.0
  F  F222  1  0.48010000  0.14984000  0.97728000  1.0
  F  F223  1  0.15118000  0.55520000  0.67540000  1.0
  F  F224  1  0.14964000  0.53954000  0.58204000  1.0
  F  F225  1  0.30464000  0.65694000  0.65907000  1.0
  F  F226  1  0.11520000  0.65704000  0.59123000  1.0
  F  F227  1  0.57860000  0.26258000  0.34109000  1.0
  F  F228  1  0.60688000  0.42066000  0.24029000  1.0
  F  F229  1  0.48174000  0.22054000  0.27524000  1.0
  F  F230  1  0.50240000  0.38308000  0.30291000  1.0
  F  F231  1  0.27460000  0.68570000  0.90635000  1.0
  F  F232  1  0.15886000  0.55224000  0.01745000  1.0
  F  F233  1  0.22176000  0.74210000  0.96731000  1.0
  F  F234  1  0.07924000  0.57230000  0.95531000  1.0
  F  F235  1  0.84320000  0.43734000  0.74614000  1.0
  F  F236  1  0.86424000  0.37438000  0.83697000  1.0
  F  F237  1  0.68606000  0.36370000  0.75372000  1.0
  F  F238  1  0.71970000  0.34114000  0.86171000  1.0
  F  F239  1  0.38640000  0.52400000  0.39406000  1.0
  F  F240  1  0.27724000  0.36674000  0.43031000  1.0
  F  F241  1  0.25888000  0.54022000  0.38898000  1.0
  F  F242  1  0.29064000  0.44510000  0.50194000  1.0
  F  F243  1  0.45610000  0.06504000  0.09080000  1.0
  F  F244  1  0.42388000  0.10588000  0.18833000  1.0
  F  F245  1  0.53914000  0.22026000  0.07372000  1.0
  F  F246  1  0.52074000  0.26226000  0.17421000  1.0
  F  F247  1  0.96294000  0.54434000  0.83456000  1.0
  F  F248  1  0.02292000  0.51080000  0.74398000  1.0
  F  F249  1  0.11226000  0.61970000  0.86308000  1.0
  F  F250  1  0.17632000  0.60840000  0.76569000  1.0
  F  F251  1  0.45804000  0.48102000  0.48266000  1.0
  F  F252  1  0.56726000  0.44136000  0.53622000  1.0
  F  F253  1  0.47750000  0.41712000  0.41151000  1.0
  F  F254  1  0.56508000  0.33612000  0.48078000  1.0
  F  F255  1  0.31362000  0.90088000  0.07279000  1.0
  F  F256  1  0.40164000  0.94566000  0.16251000  1.0
  F  F257  1  0.27232000  0.74738000  0.08096000  1.0
  F  F258  1  0.32790000  0.79564000  0.18872000  1.0
  F  F259  1  0.97874000  0.50640000  0.55294000  1.0
  F  F260  1  0.05128000  0.67102000  0.50896000  1.0
  F  F261  1  0.05594000  0.47812000  0.14115000  1.0
  F  F262  1  0.87310000  0.02246000  0.26978000  1.0
  F  F263  1  0.00646000  0.86006000  0.31262000  1.0
  O  O264  1  0.53542000  0.16020000  0.68573000  1.0
  O  O265  1  0.69238000  0.22570000  0.68965000  1.0
  O  O266  1  0.55122000  0.99582000  0.82631000  1.0
  O  O267  1  0.47804000  0.03716000  0.76611000  1.0
  O  O268  1  0.64092000  0.20038000  0.79050000  1.0
  O  O269  1  0.77908000  0.20210000  0.79322000  1.0
  O  O270  1  0.60716000  0.01158000  0.68930000  1.0
  O  O271  1  0.68474000  0.96552000  0.74430000  1.0
  O  O272  1  0.67416000  0.08022000  0.87952000  1.0
  O  O273  1  0.77210000  0.03126000  0.85742000  1.0
  O  O274  1  0.01972000  0.46748000  0.34375000  1.0
  O  O275  1  0.08894000  0.37892000  0.34509000  1.0
  O  O276  1  0.95376000  0.36160000  0.50176000  1.0
  O  O277  1  0.91454000  0.41146000  0.43065000  1.0
  O  O278  1  0.11212000  0.43476000  0.43916000  1.0
  O  O279  1  0.10228000  0.29772000  0.46373000  1.0
  O  O280  1  0.89926000  0.24458000  0.36178000  1.0
  O  O281  1  0.88232000  0.14006000  0.42393000  1.0
  O  O282  1  0.02298000  0.20286000  0.53560000  1.0
  O  O283  1  0.88350000  0.18952000  0.54680000  1.0
  O  O284  1  0.42374000  0.32996000  0.00451000  1.0
  O  O285  1  0.34452000  0.17328000  0.01764000  1.0
  O  O286  1  0.19934000  0.27408000  0.13561000  1.0
  O  O287  1  0.30462000  0.37494000  0.07631000  1.0
  O  O288  1  0.39284000  0.26646000  0.11579000  1.0
  O  O289  1  0.29606000  0.10912000  0.12149000  1.0
  O  O290  1  0.19136000  0.20970000  0.01605000  1.0
  O  O291  1  0.09310000  0.09478000  0.07185000  1.0
  O  O292  1  0.23080000  0.18220000  0.20435000  1.0
  O  O293  1  0.10518000  0.04704000  0.18291000  1.0
  O  O294  1  0.27728000  0.79984000  0.69259000  1.0
  O  O295  1  0.12022000  0.70766000  0.68964000  1.0
  O  O296  1  0.18562000  0.95288000  0.81114000  1.0
  O  O297  1  0.29246000  0.94482000  0.75839000  1.0
  O  O298  1  0.16024000  0.75724000  0.79261000  1.0
  O  O299  1  0.00492000  0.70156000  0.78223000  1.0
  O  O300  1  0.14242000  0.90260000  0.68070000  1.0
  O  O301  1  0.03120000  0.90924000  0.73118000  1.0
  O  O302  1  0.08018000  0.83322000  0.86679000  1.0
  O  O303  1  0.95700000  0.84504000  0.84223000  1.0
  O  O304  1  0.74200000  0.45012000  0.33197000  1.0
  O  O305  1  0.65602000  0.51936000  0.34813000  1.0
  O  O306  1  0.71332000  0.48140000  0.44424000  1.0
  O  O307  1  0.65530000  0.58000000  0.45126000  1.0
  O  O308  1  0.84742000  0.67490000  0.34105000  1.0
  O  O309  1  0.84292000  0.78140000  0.39615000  1.0
  O  O310  1  0.80358000  0.65284000  0.53063000  1.0
  O  O311  1  0.77024000  0.76420000  0.51260000  1.0
  O  O312  1  0.39638000  0.78390000  0.99952000  1.0
  O  O313  1  0.34418000  0.63076000  0.00915000  1.0
  O  O314  1  0.47988000  0.60702000  0.14006000  1.0
  O  O315  1  0.36896000  0.62980000  0.10051000  1.0
  O  O316  1  0.46654000  0.85206000  0.07957000  1.0
  O  O317  1  0.47188000  0.79028000  0.15362000  1.0
  O  O318  1  0.55804000  0.73232000  0.01082000  1.0
  O  O319  1  0.66542000  0.77700000  0.07497000  1.0
  O  O320  1  0.59914000  0.70568000  0.20465000  1.0
  O  O321  1  0.64406000  0.85472000  0.18834000  1.0
  O  O322  1  0.45050000  0.18650000  0.59953000  1.0
  O  O323  1  0.40208000  0.29084000  0.60308000  1.0
  O  O324  1  0.34230000  0.05216000  0.45038000  1.0
  O  O325  1  0.44028000  0.15630000  0.50982000  1.0
  O  O326  1  0.35592000  0.29820000  0.52227000  1.0
  O  O327  1  0.36618000  0.24290000  0.44691000  1.0
  O  O328  1  0.23274000  0.07888000  0.58251000  1.0
  O  O329  1  0.14460000  0.03352000  0.51018000  1.0
  O  O330  1  0.21832000  0.04944000  0.38234000  1.0
  O  O331  1  0.19700000  0.16598000  0.40641000  1.0
  O  O332  1  0.03368000  0.57528000  0.24685000  1.0
  O  O333  1  0.14644000  0.72642000  0.24710000  1.0
  O  O334  1  0.98962000  0.63782000  0.09267000  1.0
  O  O335  1  0.94218000  0.55188000  0.16432000  1.0
  O  O336  1  0.14878000  0.72196000  0.15437000  1.0
  O  O337  1  0.14840000  0.84738000  0.11761000  1.0
  O  O338  1  0.96528000  0.72900000  0.23804000  1.0
  O  O339  1  0.93478000  0.79846000  0.17106000  1.0
  O  O340  1  0.90612000  0.71442000  0.05554000  1.0
  O  O341  1  0.04144000  0.84700000  0.04845000  1.0
  O  O342  1  0.65804000  0.48382000  0.93979000  1.0
  O  O343  1  0.57700000  0.37780000  0.88155000  1.0
  O  O344  1  0.57268000  0.58542000  0.76726000  1.0
  O  O345  1  0.53324000  0.46500000  0.82303000  1.0
  O  O346  1  0.77332000  0.51950000  0.84563000  1.0
  O  O347  1  0.73790000  0.53988000  0.76760000  1.0
  O  O348  1  0.65380000  0.62580000  0.90464000  1.0
  O  O349  1  0.73442000  0.74088000  0.84530000  1.0
  O  O350  1  0.68850000  0.68972000  0.71078000  1.0
  O  O351  1  0.83214000  0.73010000  0.73542000  1.0
  O  O352  1  0.27996000  0.77108000  0.54335000  1.0
  O  O353  1  0.33284000  0.67006000  0.55701000  1.0
  O  O354  1  0.54290000  0.90764000  0.43563000  1.0
  O  O355  1  0.40500000  0.88806000  0.46999000  1.0
  O  O356  1  0.33764000  0.67752000  0.45515000  1.0
  O  O357  1  0.45294000  0.64498000  0.47075000  1.0
  O  O358  1  0.50840000  0.84842000  0.56086000  1.0
  O  O359  1  0.62926000  0.84262000  0.51973000  1.0
  O  O360  1  0.50308000  0.76130000  0.38157000  1.0
  O  O361  1  0.63898000  0.77424000  0.40574000  1.0
  O  O362  1  0.72486000  0.34446000  0.24613000  1.0
  O  O363  1  0.62304000  0.18908000  0.24466000  1.0
  O  O364  1  0.86962000  0.25070000  0.12226000  1.0
  O  O365  1  0.86908000  0.35574000  0.17992000  1.0
  O  O366  1  0.67308000  0.24552000  0.14166000  1.0
  O  O367  1  0.60968000  0.08790000  0.14381000  1.0
  O  O368  1  0.80042000  0.19198000  0.25036000  1.0
  O  O369  1  0.79892000  0.07904000  0.19784000  1.0
  O  O370  1  0.74490000  0.15122000  0.05939000  1.0
  O  O371  1  0.72988000  0.01516000  0.08240000  1.0
  O  O372  1  0.24998000  0.50342000  0.92495000  1.0
  O  O373  1  0.09260000  0.43016000  0.91542000  1.0
  O  O374  1  0.18514000  0.29246000  0.78469000  1.0
  O  O375  1  0.28768000  0.39116000  0.84572000  1.0
  O  O376  1  0.17632000  0.47672000  0.81771000  1.0
  O  O377  1  0.01962000  0.37954000  0.81145000  1.0
  O  O378  1  0.13032000  0.27330000  0.91325000  1.0
  O  O379  1  0.01664000  0.17296000  0.85735000  1.0
  O  O380  1  0.07156000  0.30030000  0.72377000  1.0
  O  O381  1  0.93798000  0.18386000  0.75292000  1.0
  O  O382  1  0.90964000  0.66918000  0.46489000  1.0
  O  O383  1  0.89930000  0.56234000  0.40496000  1.0
