# generated using pymatgen
data_Zn3C5O11
_symmetry_space_group_name_H-M   'P 1'
_cell_length_a   8.06515000
_cell_length_b   35.04645113
_cell_length_c   35.04910000
_cell_angle_alpha   60.00250000
_cell_angle_beta   90.00000000
_cell_angle_gamma   89.99799985
_symmetry_Int_Tables_number   1
_chemical_formula_structural   Zn3C5O11
_chemical_formula_sum   'Zn36 C60 O132'
_cell_volume   8579.75601804
_cell_formula_units_Z   12
loop_
 _symmetry_equiv_pos_site_id
 _symmetry_equiv_pos_as_xyz
  1  'x, y, z'
loop_
 _atom_site_type_symbol
 _atom_site_label
 _atom_site_symmetry_multiplicity
 _atom_site_fract_x
 _atom_site_fract_y
 _atom_site_fract_z
 _atom_site_occupancy
  C  C0  1  0.00588000  0.42756000  0.15766000  1.0
  C  C1  1  0.47344000  0.52276000  0.12638000  1.0
  C  C2  1  0.29368000  0.51781000  0.13031000  1.0
  C  C3  1  0.83848000  0.53361000  0.01913000  1.0
  C  C4  1  0.77340000  0.53997000  0.20356000  1.0
  C  C5  1  0.83924000  0.58931000  0.56084000  1.0
  C  C6  1  0.30680000  0.65323000  0.46564000  1.0
  C  C7  1  0.12704000  0.65221000  0.47060000  1.0
  C  C8  1  0.67184000  0.55685000  0.45476000  1.0
  C  C9  1  0.60676000  0.74762000  0.44844000  1.0
  C  C10  1  0.67256000  0.15426000  0.39902000  1.0
  C  C11  1  0.14012000  0.12298000  0.33511000  1.0
  C  C12  1  0.96040000  0.12691000  0.33613000  1.0
  C  C13  1  0.50516000  0.01572000  0.43154000  1.0
  C  C14  1  0.44008000  0.20015000  0.24073000  1.0
  C  C15  1  0.50592000  0.55740000  0.83412000  1.0
  C  C16  1  0.97348000  0.46220000  0.86540000  1.0
  C  C17  1  0.79372000  0.46715000  0.86147000  1.0
  C  C18  1  0.33848000  0.45135000  0.97265000  1.0
  C  C19  1  0.27344000  0.44499000  0.78823000  1.0
  C  C20  1  0.33920000  0.39564000  0.43094000  1.0
  C  C21  1  0.80676000  0.33173000  0.52614000  1.0
  C  C22  1  0.62704000  0.33275000  0.52119000  1.0
  C  C23  1  0.17184000  0.42811000  0.53701000  1.0
  C  C24  1  0.10676000  0.23734000  0.54334000  1.0
  C  C25  1  0.17256000  0.83069000  0.59277000  1.0
  C  C26  1  0.64012000  0.86198000  0.65668000  1.0
  C  C27  1  0.46036000  0.85805000  0.65566000  1.0
  C  C28  1  0.00516000  0.96923000  0.56026000  1.0
  C  C29  1  0.94008000  0.78480000  0.75106000  1.0
  C  C30  1  0.12520000  0.39563000  0.15766000  1.0
  C  C31  1  0.65760000  0.33171000  0.12637000  1.0
  C  C32  1  0.83736000  0.33272000  0.13031000  1.0
  C  C33  1  0.29256000  0.42811000  0.01913000  1.0
  C  C34  1  0.35764000  0.23733000  0.20356000  1.0
  C  C35  1  0.95856000  0.55739000  0.59276000  1.0
  C  C36  1  0.49096000  0.46218000  0.65668000  1.0
  C  C37  1  0.67072000  0.46713000  0.65566000  1.0
  C  C38  1  0.12592000  0.45136000  0.56025000  1.0
  C  C39  1  0.19100000  0.44499000  0.75105000  1.0
  C  C40  1  0.79192000  0.15426000  0.43095000  1.0
  C  C41  1  0.32428000  0.12297000  0.52615000  1.0
  C  C42  1  0.50404000  0.12691000  0.52120000  1.0
  C  C43  1  0.95924000  0.01572000  0.53702000  1.0
  C  C44  1  0.02432000  0.20016000  0.54335000  1.0
  C  C45  1  0.62524000  0.58933000  0.83412000  1.0
  C  C46  1  0.15760000  0.65325000  0.86541000  1.0
  C  C47  1  0.33736000  0.65223000  0.86148000  1.0
  C  C48  1  0.79256000  0.55685000  0.97265000  1.0
  C  C49  1  0.85764000  0.74763000  0.78823000  1.0
  C  C50  1  0.45856000  0.42756000  0.39902000  1.0
  C  C51  1  0.99092000  0.52278000  0.33510000  1.0
  C  C52  1  0.17064000  0.51783000  0.33612000  1.0
  C  C53  1  0.62588000  0.53360000  0.43153000  1.0
  C  C54  1  0.69096000  0.53997000  0.24073000  1.0
  C  C55  1  0.29188000  0.83069000  0.56084000  1.0
  C  C56  1  0.82428000  0.86198000  0.46564000  1.0
  C  C57  1  0.00400000  0.85805000  0.47059000  1.0
  C  C58  1  0.45924000  0.96924000  0.45477000  1.0
  C  C59  1  0.52432000  0.78480000  0.44844000  1.0
  O  O60  1  0.56480000  0.48826000  0.13394000  1.0
  O  O61  1  0.53720000  0.56257000  0.10899000  1.0
  O  O62  1  0.20680000  0.52605000  0.15741000  1.0
  O  O63  1  0.21936000  0.50150000  0.10840000  1.0
  O  O64  1  0.03640000  0.44521000  0.18232000  1.0
  O  O65  1  0.72240000  0.52084000  0.04907000  1.0
  O  O66  1  0.99512000  0.52780000  0.03091000  1.0
  O  O67  1  0.89624000  0.44521000  0.12533000  1.0
  O  O68  1  0.75628000  0.57517000  0.16450000  1.0
  O  O69  1  0.86752000  0.50631000  0.20996000  1.0
  O  O70  1  0.88272000  0.53188000  0.11712000  1.0
  O  O71  1  0.39816000  0.62629000  0.50014000  1.0
  O  O72  1  0.37056000  0.67565000  0.42584000  1.0
  O  O73  1  0.04012000  0.68755000  0.46236000  1.0
  O  O74  1  0.05272000  0.61399000  0.48690000  1.0
  O  O75  1  0.86972000  0.63162000  0.54319000  1.0
  O  O76  1  0.55576000  0.57399000  0.46757000  1.0
  O  O77  1  0.82844000  0.56285000  0.46053000  1.0
  O  O78  1  0.72960000  0.57463000  0.54319000  1.0
  O  O79  1  0.58964000  0.74376000  0.41324000  1.0
  O  O80  1  0.70088000  0.72036000  0.48210000  1.0
  O  O81  1  0.71608000  0.65309000  0.45653000  1.0
  O  O82  1  0.23148000  0.13054000  0.36204000  1.0
  O  O83  1  0.20392000  0.10559000  0.31269000  1.0
  O  O84  1  0.87348000  0.15401000  0.30079000  1.0
  O  O85  1  0.88604000  0.10499000  0.37435000  1.0
  O  O86  1  0.70308000  0.17892000  0.35671000  1.0
  O  O87  1  0.38908000  0.04567000  0.41433000  1.0
  O  O88  1  0.66176000  0.02749000  0.42560000  1.0
  O  O89  1  0.56292000  0.12193000  0.41370000  1.0
  O  O90  1  0.42300000  0.16109000  0.24459000  1.0
  O  O91  1  0.53420000  0.20656000  0.26798000  1.0
  O  O92  1  0.54940000  0.11372000  0.33525000  1.0
  O  O93  1  0.06484000  0.49670000  0.85783000  1.0
  O  O94  1  0.03728000  0.42239000  0.88279000  1.0
  O  O95  1  0.70684000  0.45891000  0.83437000  1.0
  O  O96  1  0.71940000  0.48346000  0.88338000  1.0
  O  O97  1  0.53640000  0.53975000  0.80946000  1.0
  O  O98  1  0.22244000  0.46413000  0.94270000  1.0
  O  O99  1  0.49512000  0.45714000  0.96087000  1.0
  O  O100  1  0.39624000  0.53975000  0.86645000  1.0
  O  O101  1  0.25632000  0.40979000  0.82728000  1.0
  O  O102  1  0.36756000  0.47865000  0.78182000  1.0
  O  O103  1  0.38276000  0.45309000  0.87465000  1.0
  O  O104  1  0.89812000  0.35867000  0.49164000  1.0
  O  O105  1  0.87056000  0.30932000  0.56594000  1.0
  O  O106  1  0.54012000  0.29741000  0.52942000  1.0
  O  O107  1  0.55268000  0.37097000  0.50488000  1.0
  O  O108  1  0.36972000  0.35333000  0.44859000  1.0
  O  O109  1  0.05572000  0.41098000  0.52420000  1.0
  O  O110  1  0.32844000  0.42208000  0.53126000  1.0
  O  O111  1  0.22956000  0.41032000  0.44859000  1.0
  O  O112  1  0.08964000  0.24121000  0.57854000  1.0
  O  O113  1  0.20088000  0.26459000  0.50969000  1.0
  O  O114  1  0.21604000  0.33187000  0.53525000  1.0
  O  O115  1  0.73144000  0.85442000  0.62974000  1.0
  O  O116  1  0.70388000  0.87937000  0.67910000  1.0
  O  O117  1  0.37348000  0.83095000  0.69100000  1.0
  O  O118  1  0.38600000  0.87996000  0.61744000  1.0
  O  O119  1  0.20308000  0.80604000  0.63507000  1.0
  O  O120  1  0.88908000  0.93929000  0.57746000  1.0
  O  O121  1  0.16176000  0.95745000  0.56621000  1.0
  O  O122  1  0.06292000  0.86302000  0.57809000  1.0
  O  O123  1  0.92296000  0.82387000  0.74720000  1.0
  O  O124  1  0.03420000  0.77839000  0.72381000  1.0
  O  O125  1  0.04940000  0.87123000  0.65655000  1.0
  O  O126  1  0.56624000  0.35865000  0.13393000  1.0
  O  O127  1  0.59380000  0.30929000  0.10899000  1.0
  O  O128  1  0.92424000  0.29739000  0.15740000  1.0
  O  O129  1  0.91168000  0.37095000  0.10840000  1.0
  O  O130  1  0.09460000  0.35332000  0.18231000  1.0
  O  O131  1  0.40864000  0.41094000  0.04907000  1.0
  O  O132  1  0.13592000  0.42214000  0.03090000  1.0
  O  O133  1  0.23484000  0.41031000  0.12533000  1.0
  O  O134  1  0.37476000  0.24118000  0.16450000  1.0
  O  O135  1  0.26352000  0.26458000  0.20996000  1.0
  O  O136  1  0.24832000  0.33185000  0.11712000  1.0
  O  O137  1  0.39960000  0.49667000  0.62974000  1.0
  O  O138  1  0.42720000  0.42237000  0.67910000  1.0
  O  O139  1  0.75760000  0.45889000  0.69100000  1.0
  O  O140  1  0.74504000  0.48344000  0.61744000  1.0
  O  O141  1  0.92796000  0.53973000  0.63507000  1.0
  O  O142  1  0.24200000  0.46409000  0.57746000  1.0
  O  O143  1  0.96928000  0.45720000  0.56618000  1.0
  O  O144  1  0.06820000  0.53973000  0.57809000  1.0
  O  O145  1  0.20812000  0.40978000  0.74720000  1.0
  O  O146  1  0.09688000  0.47864000  0.72381000  1.0
  O  O147  1  0.08168000  0.45307000  0.65654000  1.0
  O  O148  1  0.23296000  0.13053000  0.49165000  1.0
  O  O149  1  0.26052000  0.10559000  0.56595000  1.0
  O  O150  1  0.59092000  0.15401000  0.52944000  1.0
  O  O151  1  0.57840000  0.10500000  0.50488000  1.0
  O  O152  1  0.76128000  0.17891000  0.44861000  1.0
  O  O153  1  0.07532000  0.04566000  0.52422000  1.0
  O  O154  1  0.80260000  0.02749000  0.53126000  1.0
  O  O155  1  0.90152000  0.12193000  0.44860000  1.0
  O  O156  1  0.04144000  0.16110000  0.57855000  1.0
  O  O157  1  0.93020000  0.20657000  0.50969000  1.0
  O  O158  1  0.91500000  0.11372000  0.53526000  1.0
  O  O159  1  0.06628000  0.62631000  0.85785000  1.0
  O  O160  1  0.09380000  0.67567000  0.88279000  1.0
  O  O161  1  0.42424000  0.68757000  0.83438000  1.0
  O  O162  1  0.41172000  0.61401000  0.88338000  1.0
  O  O163  1  0.59464000  0.63164000  0.80947000  1.0
  O  O164  1  0.90864000  0.57401000  0.94271000  1.0
  O  O165  1  0.63596000  0.56283000  0.96088000  1.0
  O  O166  1  0.73488000  0.57465000  0.86644000  1.0
  O  O167  1  0.87476000  0.74377000  0.82730000  1.0
  O  O168  1  0.76352000  0.72038000  0.78182000  1.0
  O  O169  1  0.74832000  0.65310000  0.87467000  1.0
  O  O170  1  0.89956000  0.48828000  0.36203000  1.0
  O  O171  1  0.92712000  0.56258000  0.31269000  1.0
  O  O172  1  0.25756000  0.52607000  0.30078000  1.0
  O  O173  1  0.24500000  0.50151000  0.37434000  1.0
  O  O174  1  0.42792000  0.44523000  0.35670000  1.0
  O  O175  1  0.74196000  0.52085000  0.41433000  1.0
  O  O176  1  0.46928000  0.52778000  0.42558000  1.0
  O  O177  1  0.56816000  0.44522000  0.41369000  1.0
  O  O178  1  0.70804000  0.57518000  0.24459000  1.0
  O  O179  1  0.59684000  0.50631000  0.26798000  1.0
  O  O180  1  0.58164000  0.53188000  0.33525000  1.0
  O  O181  1  0.73292000  0.85442000  0.50014000  1.0
  O  O182  1  0.76048000  0.87937000  0.42584000  1.0
  O  O183  1  0.09092000  0.83095000  0.46235000  1.0
  O  O184  1  0.07836000  0.87996000  0.48691000  1.0
  O  O185  1  0.26128000  0.80604000  0.54319000  1.0
  O  O186  1  0.57532000  0.93929000  0.46758000  1.0
  O  O187  1  0.30260000  0.95747000  0.46052000  1.0
  O  O188  1  0.40152000  0.86302000  0.54320000  1.0
  O  O189  1  0.54144000  0.82386000  0.41324000  1.0
  O  O190  1  0.43016000  0.77839000  0.48210000  1.0
  O  O191  1  0.41500000  0.87123000  0.45654000  1.0
  Zn  Zn192  1  0.99340000  0.50323000  0.16682000  1.0
  Zn  Zn193  1  0.76884000  0.49551000  0.10772000  1.0
  Zn  Zn194  1  0.75636000  0.57503000  0.11260000  1.0
  Zn  Zn195  1  0.82672000  0.67414000  0.48518000  1.0
  Zn  Zn196  1  0.60220000  0.60732000  0.49290000  1.0
  Zn  Zn197  1  0.58972000  0.69171000  0.41338000  1.0
  Zn  Zn198  1  0.66008000  0.16342000  0.31420000  1.0
  Zn  Zn199  1  0.43556000  0.10432000  0.38101000  1.0
  Zn  Zn200  1  0.42304000  0.10919000  0.29662000  1.0
  Zn  Zn201  1  0.49344000  0.48173000  0.82496000  1.0
  Zn  Zn202  1  0.26888000  0.48946000  0.88405000  1.0
  Zn  Zn203  1  0.25640000  0.40993000  0.87919000  1.0
  Zn  Zn204  1  0.32672000  0.31082000  0.50660000  1.0
  Zn  Zn205  1  0.10216000  0.37764000  0.49888000  1.0
  Zn  Zn206  1  0.08968000  0.29325000  0.57840000  1.0
  Zn  Zn207  1  0.16008000  0.82153000  0.67760000  1.0
  Zn  Zn208  1  0.93552000  0.88063000  0.61078000  1.0
  Zn  Zn209  1  0.92304000  0.87577000  0.69516000  1.0
  Zn  Zn210  1  0.13764000  0.31080000  0.16682000  1.0
  Zn  Zn211  1  0.36220000  0.37762000  0.10772000  1.0
  Zn  Zn212  1  0.37468000  0.29322000  0.11260000  1.0
  Zn  Zn213  1  0.97100000  0.48172000  0.67759000  1.0
  Zn  Zn214  1  0.19556000  0.48943000  0.61077000  1.0
  Zn  Zn215  1  0.20804000  0.40991000  0.69516000  1.0
  Zn  Zn216  1  0.80432000  0.16342000  0.50662000  1.0
  Zn  Zn217  1  0.02888000  0.10432000  0.49890000  1.0
  Zn  Zn218  1  0.04136000  0.10919000  0.57842000  1.0
  Zn  Zn219  1  0.63764000  0.67416000  0.82496000  1.0
  Zn  Zn220  1  0.86220000  0.60734000  0.88406000  1.0
  Zn  Zn221  1  0.87468000  0.69173000  0.87920000  1.0
  Zn  Zn222  1  0.47096000  0.50324000  0.31419000  1.0
  Zn  Zn223  1  0.69552000  0.49552000  0.38101000  1.0
  Zn  Zn224  1  0.70796000  0.57504000  0.29663000  1.0
  Zn  Zn225  1  0.30432000  0.82153000  0.48518000  1.0
  Zn  Zn226  1  0.52888000  0.88063000  0.49290000  1.0
  Zn  Zn227  1  0.54132000  0.87577000  0.41337000  1.0
