# generated using pymatgen
data_Zn3HC5O11
_symmetry_space_group_name_H-M   'P 1'
_cell_length_a   18.14394847
_cell_length_b   18.14340000
_cell_length_c   20.93625000
_cell_angle_alpha   90.00200000
_cell_angle_beta   90.00000000
_cell_angle_gamma   59.99900000
_symmetry_Int_Tables_number   1
_chemical_formula_structural   Zn3HC5O11
_chemical_formula_sum   'Zn36 H12 C60 O132'
_cell_volume   5968.64336319
_cell_formula_units_Z   12
loop_
 _symmetry_equiv_pos_site_id
 _symmetry_equiv_pos_as_xyz
  1  'x, y, z'
loop_
 _atom_site_type_symbol
 _atom_site_label
 _atom_site_symmetry_multiplicity
 _atom_site_fract_x
 _atom_site_fract_y
 _atom_site_fract_z
 _atom_site_occupancy
  C  C0  1  0.80692000  0.70984000  0.90740000  1.0
  C  C1  1  0.56124000  0.84594000  0.90878000  1.0
  C  C2  1  0.73546000  0.97182000  0.78576000  1.0
  C  C3  1  0.81726000  0.85526000  0.02968000  1.0
  C  C4  1  0.67796000  0.13344000  0.94928000  1.0
  C  C5  1  0.71572000  0.50678000  0.90740000  1.0
  C  C6  1  0.85190000  0.61632000  0.90876000  1.0
  C  C7  1  0.97770000  0.31624000  0.78576000  1.0
  C  C8  1  0.86114000  0.35102000  0.02968000  1.0
  C  C9  1  0.13930000  0.21214000  0.94930000  1.0
  C  C10  1  0.51266000  0.80102000  0.90740000  1.0
  C  C11  1  0.62220000  0.55532000  0.90878000  1.0
  C  C12  1  0.32212000  0.72958000  0.78576000  1.0
  C  C13  1  0.35688000  0.81136000  0.02970000  1.0
  C  C14  1  0.21804000  0.67206000  0.94930000  1.0
  C  C15  1  0.51086000  0.30192000  0.61610000  1.0
  C  C16  1  0.40130000  0.16580000  0.61472000  1.0
  C  C17  1  0.70136000  0.04004000  0.73778000  1.0
  C  C18  1  0.66665333  0.15646667  0.49384000  1.0
  C  C19  1  0.80556000  0.87832000  0.57424000  1.0
  C  C20  1  0.30778000  0.21074000  0.61610000  1.0
  C  C21  1  0.17170000  0.45640000  0.61472000  1.0
  C  C22  1  0.04592000  0.28210000  0.73778000  1.0
  C  C23  1  0.16230000  0.20042000  0.49382000  1.0
  C  C24  1  0.88418000  0.33966000  0.57424000  1.0
  C  C25  1  0.21664000  0.50496000  0.61610000  1.0
  C  C26  1  0.46234000  0.39544000  0.61472000  1.0
  C  C27  1  0.28798000  0.69550000  0.73778000  1.0
  C  C28  1  0.20630000  0.66078000  0.49382000  1.0
  C  C29  1  0.34556000  0.79966000  0.57424000  1.0
  C  C30  1  0.21660000  0.30194000  0.11614000  1.0
  C  C31  1  0.46228000  0.16582000  0.11474000  1.0
  C  C32  1  0.28806000  0.03994000  0.23778000  1.0
  C  C33  1  0.20628000  0.15646000  0.99384000  1.0
  C  C34  1  0.34556000  0.87834000  0.07424000  1.0
  C  C35  1  0.30782000  0.50496000  0.11614000  1.0
  C  C36  1  0.17162000  0.39544000  0.11476000  1.0
  C  C37  1  0.04582000  0.69554000  0.23776000  1.0
  C  C38  1  0.16236000  0.66076000  0.99384000  1.0
  C  C39  1  0.88422000  0.79962000  0.07422000  1.0
  C  C40  1  0.51086000  0.21076000  0.11612000  1.0
  C  C41  1  0.40134000  0.45644000  0.11476000  1.0
  C  C42  1  0.70140000  0.28218000  0.23776000  1.0
  C  C43  1  0.66666333  0.20041667  0.99382000  1.0
  C  C44  1  0.80548000  0.33972000  0.07424000  1.0
  C  C45  1  0.51266000  0.70984000  0.40742000  1.0
  C  C46  1  0.62222000  0.84596000  0.40880000  1.0
  C  C47  1  0.32216000  0.97172000  0.28574000  1.0
  C  C48  1  0.35686000  0.85532000  0.52970000  1.0
  C  C49  1  0.21796000  0.13344000  0.44928000  1.0
  C  C50  1  0.71574000  0.80104000  0.40744000  1.0
  C  C51  1  0.85184000  0.55536000  0.40880000  1.0
  C  C52  1  0.97760000  0.72966000  0.28574000  1.0
  C  C53  1  0.86124000  0.81136000  0.52970000  1.0
  C  C54  1  0.13934000  0.67210000  0.44928000  1.0
  C  C55  1  0.80690000  0.50678000  0.40744000  1.0
  C  C56  1  0.56120000  0.61632000  0.40880000  1.0
  C  C57  1  0.73554000  0.31626000  0.28574000  1.0
  C  C58  1  0.81722000  0.35096000  0.52970000  1.0
  C  C59  1  0.67798000  0.21210000  0.44928000  1.0
  H  H60  1  0.64028000  0.10834000  0.86462000  1.0
  H  H61  1  0.11422000  0.27490000  0.86462000  1.0
  H  H62  1  0.28078000  0.63440000  0.86462000  1.0
  H  H63  1  0.74284000  0.90340000  0.65894000  1.0
  H  H64  1  0.90926000  0.37728000  0.65894000  1.0
  H  H65  1  0.38318000  0.73696000  0.65894000  1.0
  H  H66  1  0.38324000  0.90342000  0.15890000  1.0
  H  H67  1  0.90930000  0.73688000  0.15890000  1.0
  H  H68  1  0.74276000  0.37736000  0.15892000  1.0
  H  H69  1  0.28068000  0.10836000  0.36458000  1.0
  H  H70  1  0.11428000  0.63448000  0.36456000  1.0
  H  H71  1  0.64036000  0.27478000  0.36458000  1.0
  O  O72  1  0.73726000  0.87552000  0.04198000  1.0
  O  O73  1  0.83984000  0.87200000  0.97312000  1.0
  O  O74  1  0.72474000  0.05366000  0.96728000  1.0
  O  O75  1  0.63760000  0.15342000  0.89430000  1.0
  O  O76  1  0.69626000  0.92668000  0.78654000  1.0
  O  O77  1  0.77880000  0.97550000  0.83580000  1.0
  O  O78  1  0.68306000  0.92624000  0.91636000  1.0
  O  O79  1  0.76622000  0.74718000  0.95934000  1.0
  O  O80  1  0.78776000  0.75366000  0.85386000  1.0
  O  O81  1  0.59794000  0.84998000  0.85510000  1.0
  O  O82  1  0.58760000  0.85676000  0.96578000  1.0
  O  O83  1  0.88138000  0.41078000  0.04198000  1.0
  O  O84  1  0.87788000  0.31170000  0.97312000  1.0
  O  O85  1  0.05952000  0.24516000  0.96730000  1.0
  O  O86  1  0.15930000  0.23250000  0.89430000  1.0
  O  O87  1  0.93258000  0.40056000  0.78654000  1.0
  O  O88  1  0.98140000  0.26920000  0.83580000  1.0
  O  O89  1  0.93212000  0.41424000  0.91636000  1.0
  O  O90  1  0.75304000  0.51018000  0.95934000  1.0
  O  O91  1  0.75954000  0.48212000  0.85386000  1.0
  O  O92  1  0.85588000  0.57560000  0.85508000  1.0
  O  O93  1  0.86268000  0.57916000  0.96578000  1.0
  O  O94  1  0.41662000  0.73136000  0.04198000  1.0
  O  O95  1  0.31756000  0.83394000  0.97312000  1.0
  O  O96  1  0.25104000  0.71882000  0.96730000  1.0
  O  O97  1  0.23840000  0.63168000  0.89430000  1.0
  O  O98  1  0.40644000  0.69040000  0.78654000  1.0
  O  O99  1  0.27510000  0.77292000  0.83580000  1.0
  O  O100  1  0.42012000  0.67718000  0.91636000  1.0
  O  O101  1  0.51600000  0.76034000  0.95936000  1.0
  O  O102  1  0.48802000  0.78184000  0.85386000  1.0
  O  O103  1  0.58148000  0.59204000  0.85508000  1.0
  O  O104  1  0.58504000  0.58170000  0.96578000  1.0
  O  O105  1  0.60692000  0.13620000  0.48154000  1.0
  O  O106  1  0.70596000  0.13974000  0.55040000  1.0
  O  O107  1  0.77252000  0.95810000  0.55624000  1.0
  O  O108  1  0.78524000  0.85832000  0.62926000  1.0
  O  O109  1  0.61702000  0.08514000  0.73698000  1.0
  O  O110  1  0.74842000  0.03626000  0.68774000  1.0
  O  O111  1  0.60342000  0.08550000  0.60716000  1.0
  O  O112  1  0.50752000  0.26458000  0.56416000  1.0
  O  O113  1  0.53552000  0.25810000  0.66964000  1.0
  O  O114  1  0.44204000  0.16178000  0.66840000  1.0
  O  O115  1  0.43848000  0.15498000  0.55772000  1.0
  O  O116  1  0.14206000  0.28040000  0.48154000  1.0
  O  O117  1  0.14558000  0.17782000  0.55038000  1.0
  O  O118  1  0.96396000  0.29294000  0.55624000  1.0
  O  O119  1  0.86418000  0.37998000  0.62926000  1.0
  O  O120  1  0.09100000  0.32136000  0.73700000  1.0
  O  O121  1  0.04212000  0.23884000  0.68772000  1.0
  O  O122  1  0.09140000  0.33458000  0.60716000  1.0
  O  O123  1  0.27046000  0.25138000  0.56414000  1.0
  O  O124  1  0.26400000  0.22988000  0.66964000  1.0
  O  O125  1  0.16766000  0.41970000  0.66840000  1.0
  O  O126  1  0.16088000  0.43002000  0.55772000  1.0
  O  O127  1  0.28630000  0.60102000  0.48154000  1.0
  O  O128  1  0.18372000  0.70008000  0.55040000  1.0
  O  O129  1  0.29882000  0.76662000  0.55624000  1.0
  O  O130  1  0.38586000  0.77936000  0.62926000  1.0
  O  O131  1  0.32722000  0.61118000  0.73700000  1.0
  O  O132  1  0.24474000  0.74254000  0.68772000  1.0
  O  O133  1  0.34046000  0.59754000  0.60716000  1.0
  O  O134  1  0.25730000  0.50164000  0.56414000  1.0
  O  O135  1  0.23580000  0.52960000  0.66964000  1.0
  O  O136  1  0.42560000  0.43616000  0.66842000  1.0
  O  O137  1  0.43594000  0.43260000  0.55772000  1.0
  O  O138  1  0.28626000  0.13624000  0.98154000  1.0
  O  O139  1  0.18368000  0.13976000  0.05040000  1.0
  O  O140  1  0.29878000  0.95812000  0.05624000  1.0
  O  O141  1  0.38594000  0.85832000  0.12924000  1.0
  O  O142  1  0.32726000  0.08508000  0.23700000  1.0
  O  O143  1  0.24472000  0.03626000  0.18774000  1.0
  O  O144  1  0.34046000  0.08552000  0.10716000  1.0
  O  O145  1  0.25728000  0.26460000  0.06418000  1.0
  O  O146  1  0.23576000  0.25812000  0.16966000  1.0
  O  O147  1  0.42558000  0.16178000  0.16842000  1.0
  O  O148  1  0.43592000  0.15500000  0.05774000  1.0
  O  O149  1  0.14214000  0.60098000  0.98154000  1.0
  O  O150  1  0.14564000  0.70008000  0.05040000  1.0
  O  O151  1  0.96400000  0.76662000  0.05622000  1.0
  O  O152  1  0.86422000  0.77926000  0.12922000  1.0
  O  O153  1  0.09096000  0.61120000  0.23700000  1.0
  O  O154  1  0.04214000  0.74256000  0.18772000  1.0
  O  O155  1  0.09142000  0.59752000  0.10716000  1.0
  O  O156  1  0.27048000  0.50160000  0.06418000  1.0
  O  O157  1  0.26398000  0.52966000  0.16966000  1.0
  O  O158  1  0.16764000  0.43618000  0.16844000  1.0
  O  O159  1  0.16086000  0.43260000  0.05774000  1.0
  O  O160  1  0.60690000  0.28040000  0.98154000  1.0
  O  O161  1  0.70598000  0.17780000  0.05040000  1.0
  O  O162  1  0.77248000  0.29294000  0.05622000  1.0
  O  O163  1  0.78514000  0.38006000  0.12924000  1.0
  O  O164  1  0.61708000  0.32138000  0.23700000  1.0
  O  O165  1  0.74844000  0.23884000  0.18772000  1.0
  O  O166  1  0.60342000  0.33456000  0.10716000  1.0
  O  O167  1  0.50752000  0.25142000  0.06416000  1.0
  O  O168  1  0.53550000  0.22992000  0.16966000  1.0
  O  O169  1  0.44204000  0.41972000  0.16844000  1.0
  O  O170  1  0.43848000  0.43006000  0.05774000  1.0
  O  O171  1  0.41662000  0.87554000  0.54200000  1.0
  O  O172  1  0.31756000  0.87202000  0.47312000  1.0
  O  O173  1  0.25102000  0.05366000  0.46728000  1.0
  O  O174  1  0.23828000  0.15346000  0.39426000  1.0
  O  O175  1  0.40650000  0.92662000  0.28654000  1.0
  O  O176  1  0.27510000  0.97550000  0.33580000  1.0
  O  O177  1  0.42010000  0.92624000  0.41638000  1.0
  O  O178  1  0.51600000  0.74718000  0.45938000  1.0
  O  O179  1  0.48802000  0.75364000  0.35390000  1.0
  O  O180  1  0.58148000  0.85000000  0.35512000  1.0
  O  O181  1  0.58504000  0.85678000  0.46580000  1.0
  O  O182  1  0.88146000  0.73136000  0.54200000  1.0
  O  O183  1  0.87794000  0.83396000  0.47314000  1.0
  O  O184  1  0.05956000  0.71884000  0.46728000  1.0
  O  O185  1  0.15936000  0.63178000  0.39426000  1.0
  O  O186  1  0.93252000  0.69042000  0.28654000  1.0
  O  O187  1  0.98140000  0.77294000  0.33580000  1.0
  O  O188  1  0.93212000  0.67720000  0.41636000  1.0
  O  O189  1  0.75306000  0.76040000  0.45940000  1.0
  O  O190  1  0.75952000  0.78188000  0.35390000  1.0
  O  O191  1  0.85586000  0.59208000  0.35512000  1.0
  O  O192  1  0.86264000  0.58174000  0.46580000  1.0
  O  O193  1  0.73722000  0.41074000  0.54200000  1.0
  O  O194  1  0.83982000  0.31166000  0.47314000  1.0
  O  O195  1  0.72470000  0.24516000  0.46730000  1.0
  O  O196  1  0.63766000  0.23240000  0.39426000  1.0
  O  O197  1  0.69630000  0.40060000  0.28652000  1.0
  O  O198  1  0.77880000  0.26920000  0.33580000  1.0
  O  O199  1  0.68306000  0.41424000  0.41636000  1.0
  O  O200  1  0.76624000  0.51012000  0.45938000  1.0
  O  O201  1  0.78774000  0.48214000  0.35388000  1.0
  O  O202  1  0.59792000  0.57562000  0.35510000  1.0
  O  O203  1  0.58758000  0.57916000  0.46582000  1.0
  Zn  Zn204  1  0.75860000  0.95548000  0.92082000  1.0
  Zn  Zn205  1  0.69264000  0.86378000  0.85216000  1.0
  Zn  Zn206  1  0.68820000  0.85752000  0.97256000  1.0
  Zn  Zn207  1  0.96136000  0.30946000  0.92082000  1.0
  Zn  Zn208  1  0.86966000  0.46710000  0.85216000  1.0
  Zn  Zn209  1  0.86340000  0.47784000  0.97256000  1.0
  Zn  Zn210  1  0.31532000  0.75270000  0.92082000  1.0
  Zn  Zn211  1  0.47298000  0.68676000  0.85216000  1.0
  Zn  Zn212  1  0.48370000  0.68230000  0.97256000  1.0
  Zn  Zn213  1  0.70820000  0.05628000  0.60270000  1.0
  Zn  Zn214  1  0.55052000  0.14800000  0.67134000  1.0
  Zn  Zn215  1  0.53984000  0.15422000  0.55096000  1.0
  Zn  Zn216  1  0.06212000  0.25906000  0.60270000  1.0
  Zn  Zn217  1  0.15388000  0.32498000  0.67134000  1.0
  Zn  Zn218  1  0.16010000  0.32944000  0.55094000  1.0
  Zn  Zn219  1  0.26494000  0.70234000  0.60270000  1.0
  Zn  Zn220  1  0.33088000  0.54464000  0.67136000  1.0
  Zn  Zn221  1  0.33534000  0.53396000  0.55094000  1.0
  Zn  Zn222  1  0.26492000  0.05628000  0.10270000  1.0
  Zn  Zn223  1  0.33088000  0.14798000  0.17136000  1.0
  Zn  Zn224  1  0.33532000  0.15426000  0.05096000  1.0
  Zn  Zn225  1  0.06216000  0.70232000  0.10270000  1.0
  Zn  Zn226  1  0.15388000  0.54466000  0.17136000  1.0
  Zn  Zn227  1  0.16014000  0.53392000  0.05096000  1.0
  Zn  Zn228  1  0.70820000  0.25906000  0.10270000  1.0
  Zn  Zn229  1  0.55054000  0.32500000  0.17136000  1.0
  Zn  Zn230  1  0.53982000  0.32946000  0.05096000  1.0
  Zn  Zn231  1  0.31530000  0.95550000  0.42082000  1.0
  Zn  Zn232  1  0.47300000  0.86376000  0.35218000  1.0
  Zn  Zn233  1  0.48368000  0.85754000  0.47258000  1.0
  Zn  Zn234  1  0.96140000  0.75272000  0.42082000  1.0
  Zn  Zn235  1  0.86964000  0.68678000  0.35218000  1.0
  Zn  Zn236  1  0.86342000  0.68232000  0.47258000  1.0
  Zn  Zn237  1  0.75858000  0.30944000  0.42082000  1.0
  Zn  Zn238  1  0.69266000  0.46710000  0.35218000  1.0
  Zn  Zn239  1  0.68818000  0.47782000  0.47258000  1.0
