# generated using pymatgen
data_Zn3H46C37S2O11
_symmetry_space_group_name_H-M   'P 1'
_cell_length_a   15.65845000
_cell_length_b   24.13264881
_cell_length_c   25.01985000
_cell_angle_alpha   62.53690073
_cell_angle_beta   80.41200000
_cell_angle_gamma   75.95585193
_symmetry_Int_Tables_number   1
_chemical_formula_structural   Zn3H46C37S2O11
_chemical_formula_sum   'Zn6 H92 C74 S4 O22'
_cell_volume   8121.87733538
_cell_formula_units_Z   2
loop_
 _symmetry_equiv_pos_site_id
 _symmetry_equiv_pos_as_xyz
  1  'x, y, z'
loop_
 _atom_site_type_symbol
 _atom_site_label
 _atom_site_symmetry_multiplicity
 _atom_site_fract_x
 _atom_site_fract_y
 _atom_site_fract_z
 _atom_site_occupancy
  C  C0  1  0.96660000  0.92758000  0.06328000  1.0
  C  C1  1  0.98940000  0.88576000  0.03510000  1.0
  C  C2  1  0.03768000  0.90562000  0.97746000  1.0
  C  C3  1  0.06936000  0.46812000  0.67360000  1.0
  C  C4  1  0.24742000  0.62196000  0.65208000  1.0
  C  C5  1  0.82982000  0.66814000  0.59046000  1.0
  C  C6  1  0.04170000  0.63356000  0.76688000  1.0
  C  C7  1  0.04964000  0.70006000  0.48794000  1.0
  C  C8  1  0.16022000  0.17772000  0.25756000  1.0
  C  C9  1  0.32840000  0.22020000  0.38296000  1.0
  C  C10  1  0.91682000  0.23980000  0.32794000  1.0
  C  C11  1  0.12840000  0.40386000  0.23154000  1.0
  C  C12  1  0.34176000  0.61814000  0.65308000  1.0
  C  C13  1  0.40116000  0.56386000  0.68624000  1.0
  C  C14  1  0.48736000  0.57416000  0.67804000  1.0
  C  C15  1  0.49530000  0.63662000  0.63888000  1.0
  C  C16  1  0.73378000  0.67602000  0.59832000  1.0
  C  C17  1  0.67360000  0.73288000  0.57412000  1.0
  C  C18  1  0.58590000  0.72446000  0.58642000  1.0
  C  C19  1  0.57774000  0.66110000  0.62046000  1.0
  C  C20  1  0.42246000  0.20690000  0.39182000  1.0
  C  C21  1  0.47920000  0.14844000  0.40680000  1.0
  C  C22  1  0.56774000  0.15206000  0.40406000  1.0
  C  C23  1  0.58022000  0.21336000  0.38678000  1.0
  C  C24  1  0.82196000  0.24642000  0.34354000  1.0
  C  C25  1  0.76410000  0.30350000  0.33340000  1.0
  C  C26  1  0.67634000  0.29652000  0.34958000  1.0
  C  C27  1  0.66534000  0.23394000  0.37232000  1.0
  C  C28  1  0.90850000  0.91182000  0.12214000  1.0
  C  C29  1  0.04614000  0.73848000  0.42078000  1.0
  C  C30  1  0.95646000  0.78432000  0.40620000  1.0
  C  C31  1  0.95586000  0.84044000  0.34280000  1.0
  C  C32  1  0.96764000  0.82046000  0.29148000  1.0
  C  C33  1  0.93800000  0.87788000  0.23184000  1.0
  C  C34  1  0.95606000  0.86014000  0.17880000  1.0
  C  C35  1  0.95964000  0.82136000  0.06396000  1.0
  C  C36  1  0.13708000  0.46678000  0.17914000  1.0
  C  C37  1  0.10630000  0.52246000  0.19614000  1.0
  C  C38  1  0.08950000  0.58586000  0.13912000  1.0
  C  C39  1  0.07216000  0.64374000  0.15270000  1.0
  C  C40  1  0.03002000  0.70390000  0.09942000  1.0
  C  C41  1  0.02750000  0.76516000  0.10514000  1.0
  C  C42  1  0.08262000  0.85599500  0.95450500  1.0
  C  C43  1  0.01826000  0.64238000  0.82362000  1.0
  C  C44  1  0.01798000  0.71050000  0.81328000  1.0
  C  C45  1  0.01710000  0.71412000  0.87304000  1.0
  C  C46  1  0.01156000  0.78294000  0.86262000  1.0
  C  C47  1  0.04066000  0.78444000  0.91750000  1.0
  C  C48  1  0.02776000  0.85270000  0.91056000  1.0
  C  C49  1  0.08202000  0.39904000  0.68752000  1.0
  C  C50  1  0.08158000  0.35356000  0.75556000  1.0
  C  C51  1  0.07258000  0.28678000  0.76694000  1.0
  C  C52  1  0.07894000  0.23818000  0.83390000  1.0
  C  C53  1  0.04090000  0.17978000  0.84666000  1.0
  C  C54  1  0.19348000  0.14896000  0.21448000  1.0
  C  C55  1  0.04382000  0.97124000  0.94274000  1.0
  C  C56  1  0.01220000  0.01354000  0.96968000  1.0
  C  C57  1  0.99028000  0.98844000  0.03248000  1.0
  C  C58  1  0.12954000  0.12784000  0.49032000  1.0
  C  C59  1  0.09128000  0.99570000  0.87966000  1.0
  C  C60  1  0.10814000  0.07360000  0.54892000  1.0
  C  C61  1  0.06578000  0.09398000  0.59894000  1.0
  C  C62  1  0.08568000  0.03900000  0.66174000  1.0
  C  C63  1  0.03670000  0.05456000  0.71336000  1.0
  C  C64  1  0.08592000  0.01462000  0.77158000  1.0
  C  C65  1  0.03132000  0.01824000  0.82750000  1.0
  C  C66  1  0.98132000  0.08464000  0.93096000  1.0
  C  C67  1  0.05176000  0.12683000  0.91193000  1.0
  C  C68  1  0.00864000  0.02220000  0.06702000  1.0
  C  C69  1  0.12550000  0.11764000  0.20616000  1.0
  C  C70  1  0.16326000  0.09252000  0.15900000  1.0
  C  C71  1  0.10264000  0.05606000  0.15060000  1.0
  C  C72  1  0.14646000  0.03226000  0.10328000  1.0
  C  C73  1  0.09708000  0.98802000  0.09706000  1.0
  H  H74  1  0.38316000  0.51802000  0.71520000  1.0
  H  H75  1  0.54198000  0.53690000  0.70012000  1.0
  H  H76  1  0.69224000  0.77890000  0.54756000  1.0
  H  H77  1  0.53052000  0.76354000  0.57048000  1.0
  H  H78  1  0.78432000  0.34910000  0.31408000  1.0
  H  H79  1  0.62260000  0.33642000  0.34340000  1.0
  H  H80  1  0.84976000  0.89588000  0.11880000  1.0
  H  H81  1  0.10008000  0.76630000  0.40380000  1.0
  H  H82  1  0.93816000  0.80524000  0.43894000  1.0
  H  H83  1  0.89124000  0.87318000  0.34004000  1.0
  H  H84  1  0.92744000  0.78374000  0.30302000  1.0
  H  H85  1  0.86596000  0.89528000  0.23734000  1.0
  H  H86  1  0.93046000  0.81592000  0.19350000  1.0
  H  H87  1  0.05448000  0.70652000  0.39872000  1.0
  H  H88  1  0.90444000  0.75742000  0.41182000  1.0
  H  H89  1  0.00810000  0.86716000  0.33710000  1.0
  H  H90  1  0.03820000  0.79956000  0.28592000  1.0
  H  H91  1  0.97293500  0.91698000  0.22168000  1.0
  H  H92  1  0.02856000  0.85024000  0.16866000  1.0
  H  H93  1  0.94530000  0.81154000  0.02752000  1.0
  H  H94  1  0.20764000  0.46538000  0.16258000  1.0
  H  H95  1  0.15764000  0.52286000  0.22178000  1.0
  H  H96  1  0.14750000  0.58918000  0.10606000  1.0
  H  H97  1  0.13572000  0.65020000  0.16126000  1.0
  H  H98  1  0.06774000  0.70716000  0.05664000  1.0
  H  H99  1  0.09488000  0.77644000  0.09457500  1.0
  H  H100  1  0.89590000  0.82208500  0.09061500  1.0
  H  H101  1  0.09866000  0.47404000  0.14202000  1.0
  H  H102  1  0.04396000  0.51660000  0.22530000  1.0
  H  H103  1  0.03154000  0.58660000  0.11816000  1.0
  H  H104  1  0.02670000  0.63572000  0.19374000  1.0
  H  H105  1  0.96172000  0.69928000  0.09736000  1.0
  H  H106  1  0.00920000  0.75590000  0.15272000  1.0
  H  H107  1  0.09784000  0.80866000  0.99282000  1.0
  H  H108  1  0.95252000  0.62976000  0.84278000  1.0
  H  H109  1  0.95920000  0.74300000  0.78846000  1.0
  H  H110  1  0.95984000  0.69534000  0.90336000  1.0
  H  H111  1  0.94256000  0.80930000  0.85362000  1.0
  H  H112  1  0.00200000  0.75650000  0.95882000  1.0
  H  H113  1  0.95626000  0.87016000  0.91790000  1.0
  H  H114  1  0.14902000  0.86368000  0.93286000  1.0
  H  H115  1  0.06662000  0.60754000  0.85720000  1.0
  H  H116  1  0.07840000  0.72660000  0.78546000  1.0
  H  H117  1  0.07864000  0.68360000  0.89546000  1.0
  H  H118  1  0.05522000  0.80726000  0.82256000  1.0
  H  H119  1  0.11162000  0.76160000  0.92284000  1.0
  H  H120  1  0.04926000  0.88394000  0.86386000  1.0
  H  H121  1  0.02948000  0.39342000  0.66644000  1.0
  H  H122  1  0.02498000  0.37232000  0.77984000  1.0
  H  H123  1  0.00760000  0.29088000  0.75152000  1.0
  H  H124  1  0.04096000  0.26050000  0.86306000  1.0
  H  H125  1  0.96952000  0.19660000  0.83796000  1.0
  H  H126  1  0.14596000  0.38610000  0.66518000  1.0
  H  H127  1  0.14384000  0.35060000  0.77346000  1.0
  H  H128  1  0.12504000  0.26910000  0.73956000  1.0
  H  H129  1  0.14916000  0.22312000  0.84528000  1.0
  H  H130  1  0.07334000  0.15954000  0.81476000  1.0
  H  H131  1  0.21008000  0.18746000  0.16992000  1.0
  H  H132  1  0.06352000  0.15298000  0.19064000  1.0
  H  H133  1  0.45786000  0.10480000  0.41760000  1.0
  H  H134  1  0.62092000  0.11138000  0.41254000  1.0
  H  H135  1  0.14806000  0.95960000  0.87660000  1.0
  H  H136  1  0.06448000  0.04794000  0.54158000  1.0
  H  H137  1  0.99326000  0.10900000  0.59456000  1.0
  H  H138  1  0.06688000  0.99552000  0.66584000  1.0
  H  H139  1  0.96872000  0.04480000  0.72088000  1.0
  H  H140  1  0.10428000  0.96408000  0.77948000  1.0
  H  H141  1  0.97916000  0.98932000  0.84130000  1.0
  H  H142  1  0.17166000  0.03986000  0.56332000  1.0
  H  H143  1  0.09182000  0.13494000  0.59462000  1.0
  H  H144  1  0.15822000  0.02860000  0.66588000  1.0
  H  H145  1  0.03168000  0.10576000  0.70114000  1.0
  H  H146  1  0.14806000  0.03236000  0.76498000  1.0
  H  H147  1  0.99810000  0.06836000  0.81486000  1.0
  H  H148  1  0.92512000  0.10370000  0.95524000  1.0
  H  H149  1  0.04372000  0.14904000  0.94318000  1.0
  H  H150  1  0.95214000  0.09056000  0.89090000  1.0
  H  H151  1  0.11980000  0.09836000  0.91582000  1.0
  H  H152  1  0.95646000  0.02378000  0.10222000  1.0
  H  H153  1  0.17496000  0.13338000  0.11488000  1.0
  H  H154  1  0.03816000  0.08794000  0.13538000  1.0
  H  H155  1  0.15392000  0.07348000  0.05862000  1.0
  H  H156  1  0.08618500  0.94834000  0.14198000  1.0
  H  H157  1  0.01232000  0.07244000  0.03660000  1.0
  H  H158  1  0.25446000  0.11282000  0.23108000  1.0
  H  H159  1  0.11050000  0.07762000  0.25000000  1.0
  H  H160  1  0.22792000  0.06022000  0.17322000  1.0
  H  H161  1  0.09120000  0.01486000  0.19440000  1.0
  H  H162  1  0.21394000  0.00500000  0.11664000  1.0
  H  H163  1  0.14218000  0.96648000  0.06934000  1.0
  H  H164  1  0.87804000  0.95502000  0.12840000  1.0
  H  H165  1  0.12198000  0.03600000  0.87106000  1.0
  O  O166  1  0.21234000  0.57204000  0.68932000  1.0
  O  O167  1  0.20056000  0.67520000  0.61422000  1.0
  O  O168  1  0.87774000  0.61061500  0.60942500  1.0
  O  O169  1  0.86792000  0.71794000  0.56228000  1.0
  O  O170  1  0.03758000  0.51114000  0.62136000  1.0
  O  O171  1  0.05118000  0.57670000  0.76954000  1.0
  O  O172  1  0.06022000  0.68086000  0.71540000  1.0
  O  O173  1  0.09076000  0.48416000  0.71278000  1.0
  O  O174  1  0.07190000  0.72570000  0.51888000  1.0
  O  O175  1  0.02344000  0.64480000  0.51440000  1.0
  O  O176  1  0.04060000  0.62294000  0.63892000  1.0
  O  O177  1  0.29342000  0.17504000  0.38446000  1.0
  O  O178  1  0.28318000  0.27806000  0.37020000  1.0
  O  O179  1  0.95096000  0.29098000  0.29606000  1.0
  O  O180  1  0.96750000  0.18326000  0.34484000  1.0
  O  O181  1  0.10854000  0.23426000  0.23788000  1.0
  O  O182  1  0.16758000  0.17086000  0.49008000  1.0
  O  O183  1  0.19257500  0.14928000  0.31122000  1.0
  O  O184  1  0.16324000  0.38696000  0.28258000  1.0
  O  O185  1  0.08878000  0.36604000  0.22376000  1.0
  O  O186  1  0.12334000  0.25676000  0.34218000  1.0
  O  O187  1  0.12766000  0.12472000  0.43946000  1.0
  S  S188  1  0.39564000  0.67902000  0.61404000  1.0
  S  S189  1  0.67880000  0.61566000  0.63504000  1.0
  S  S190  1  0.48166000  0.26282000  0.37526000  1.0
  S  S191  1  0.76466000  0.18714000  0.37266000  1.0
  Zn  Zn192  1  0.99756000  0.59750000  0.59618000  1.0
  Zn  Zn193  1  0.09630000  0.56444000  0.70196000  1.0
  Zn  Zn194  1  0.08296000  0.69286000  0.60052000  1.0
  Zn  Zn195  1  0.06890000  0.28604000  0.27622000  1.0
  Zn  Zn196  1  0.18140000  0.17804000  0.36916000  1.0
  Zn  Zn197  1  0.16726000  0.31130000  0.35238000  1.0
