# generated using pymatgen
data_Cd4H78C105N4O23
_symmetry_space_group_name_H-M   'P 1'
_cell_length_a   18.50275000
_cell_length_b   24.91036113
_cell_length_c   26.57700000
_cell_angle_alpha   116.61857135
_cell_angle_beta   97.11000000
_cell_angle_gamma   90.64506624
_symmetry_Int_Tables_number   1
_chemical_formula_structural   Cd4H78C105N4O23
_chemical_formula_sum   'Cd4 H78 C105 N4 O23'
_cell_volume   10836.27785749
_cell_formula_units_Z   1
loop_
 _symmetry_equiv_pos_site_id
 _symmetry_equiv_pos_as_xyz
  1  'x, y, z'
loop_
 _atom_site_type_symbol
 _atom_site_label
 _atom_site_symmetry_multiplicity
 _atom_site_fract_x
 _atom_site_fract_y
 _atom_site_fract_z
 _atom_site_occupancy
  C  C0  1  0.00806000  0.09158000  0.98050000  1.0
  C  C1  1  0.99154000  0.08462000  0.03144000  1.0
  C  C2  1  0.97346000  0.13446000  0.07924000  1.0
  C  C3  1  0.98870000  0.26902000  0.25366000  1.0
  C  C4  1  0.02848000  0.31800000  0.25526000  1.0
  C  C5  1  0.01846000  0.37718000  0.29444000  1.0
  C  C6  1  0.94052000  0.27910000  0.29354000  1.0
  C  C7  1  0.93674000  0.18190000  0.17746000  1.0
  C  C8  1  0.95674000  0.12828000  0.12660000  1.0
  C  C9  1  0.95936000  0.07180000  0.12622000  1.0
  C  C10  1  0.92978000  0.33796000  0.33314000  1.0
  C  C11  1  0.96888000  0.38662000  0.33312000  1.0
  C  C12  1  0.07400000  0.80694000  0.09344000  1.0
  C  C13  1  0.04486000  0.75902000  0.04086000  1.0
  C  C14  1  0.01444000  0.76980000  0.99546000  1.0
  C  C15  1  0.01408000  0.82910000  0.00266000  1.0
  C  C16  1  0.04206000  0.87736000  0.05512000  1.0
  C  C17  1  0.07206000  0.86622000  0.10032000  1.0
  C  C18  1  0.97812000  0.96050000  0.07760000  1.0
  C  C19  1  0.97726000  0.02148000  0.07864000  1.0
  C  C20  1  0.99254000  0.02812000  0.03114000  1.0
  C  C21  1  0.93074000  0.02524000  0.79120000  1.0
  C  C22  1  0.96820000  0.07184000  0.78654000  1.0
  C  C23  1  0.99859000  0.12374000  0.83522000  1.0
  C  C24  1  0.99044000  0.12946000  0.88918000  1.0
  C  C25  1  0.95362000  0.08296000  0.89454000  1.0
  C  C26  1  0.92304000  0.03166000  0.84550000  1.0
  C  C27  1  0.78412000  0.41978000  0.71202000  1.0
  C  C28  1  0.02306000  0.39454000  0.79988000  1.0
  C  C29  1  0.24350000  0.41756000  0.72022000  1.0
  C  C30  1  0.02072000  0.52906000  0.72910000  1.0
  C  C31  1  0.99722000  0.35484000  0.60752000  1.0
  C  C32  1  0.73134000  0.79142000  0.41520000  1.0
  C  C33  1  0.98164000  0.88884000  0.50690000  1.0
  C  C34  1  0.18866000  0.78548000  0.41178000  1.0
  C  C35  1  0.94564000  0.81970000  0.33282000  1.0
  C  C36  1  0.95537000  0.68474000  0.41004000  1.0
  C  C37  1  0.70446000  0.41906000  0.71268000  1.0
  C  C38  1  0.55226000  0.41792000  0.71564000  1.0
  C  C39  1  0.66062000  0.36466000  0.68490000  1.0
  C  C40  1  0.67166000  0.47286000  0.74180000  1.0
  C  C41  1  0.36834000  0.47064000  0.74898000  1.0
  C  C42  1  0.47232000  0.41752000  0.71736000  1.0
  C  C43  1  0.59646000  0.47234000  0.74332000  1.0
  C  C44  1  0.58532000  0.36406000  0.68632000  1.0
  C  C45  1  0.35596000  0.36390000  0.68974000  1.0
  C  C46  1  0.32314000  0.41724000  0.71990000  1.0
  C  C47  1  0.65148000  0.79054000  0.41456000  1.0
  C  C48  1  0.49852000  0.78834000  0.41334000  1.0
  C  C49  1  0.62186000  0.81652000  0.46564000  1.0
  C  C50  1  0.60414000  0.76348000  0.36282000  1.0
  C  C51  1  0.29848000  0.76118000  0.36118000  1.0
  C  C52  1  0.41816000  0.78718000  0.41276000  1.0
  C  C53  1  0.52848000  0.76240000  0.36218000  1.0
  C  C54  1  0.54624000  0.81544000  0.46508000  1.0
  C  C55  1  0.31652000  0.81066000  0.46314000  1.0
  C  C56  1  0.26838000  0.78556000  0.41196000  1.0
  C  C57  1  0.87486000  0.34908000  0.37382000  1.0
  C  C58  1  0.91240000  0.37630000  0.43464000  1.0
  C  C59  1  0.92642000  0.43898000  0.46614000  1.0
  C  C60  1  0.96336000  0.46406000  0.52154000  1.0
  C  C61  1  0.98478000  0.42722000  0.54678000  1.0
  C  C62  1  0.96742000  0.36444000  0.51732000  1.0
  C  C63  1  0.93284000  0.33932000  0.46056000  1.0
  C  C64  1  0.98884000  0.32300000  0.54376000  1.0
  C  C65  1  0.06284000  0.42968000  0.29634000  1.0
  C  C66  1  0.01524000  0.47922000  0.29820000  1.0
  C  C67  1  0.97398000  0.47448000  0.24822000  1.0
  C  C68  1  0.92716000  0.51880000  0.25038000  1.0
  C  C69  1  0.92070000  0.56800000  0.30238000  1.0
  C  C70  1  0.96262000  0.57416000  0.35280000  1.0
  C  C71  1  0.00984000  0.52948000  0.35024000  1.0
  C  C72  1  0.95186000  0.62446000  0.40974000  1.0
  C  C73  1  0.03980000  0.17288000  0.82936000  1.0
  C  C74  1  0.99352000  0.22246000  0.82858000  1.0
  C  C75  1  0.91668000  0.21504000  0.81614000  1.0
  C  C76  1  0.87672000  0.26206000  0.81570000  1.0
  C  C77  1  0.91244000  0.31680000  0.82720000  1.0
  C  C78  1  0.98900000  0.32486000  0.83852000  1.0
  C  C79  1  0.02906000  0.27738000  0.83882000  1.0
  C  C80  1  0.02766000  0.38430000  0.85166000  1.0
  C  C81  1  0.89668500  0.96988000  0.73854000  1.0
  C  C82  1  0.95038000  0.94388000  0.69682000  1.0
  C  C83  1  0.00682000  0.91134000  0.70710000  1.0
  C  C84  1  0.05874000  0.88984000  0.67012000  1.0
  C  C85  1  0.05512000  0.90088000  0.62282000  1.0
  C  C86  1  0.99870000  0.93300000  0.61158000  1.0
  C  C87  1  0.94614000  0.95396000  0.64858000  1.0
  C  C88  1  0.99584000  0.94608000  0.56120000  1.0
  C  C89  1  0.98332000  0.71788000  0.93918000  1.0
  C  C90  1  0.03674000  0.69510000  0.89648000  1.0
  C  C91  1  0.11304000  0.70694000  0.91240000  1.0
  C  C92  1  0.15992000  0.68306000  0.87160000  1.0
  C  C93  1  0.13184000  0.64678000  0.81468000  1.0
  C  C94  1  0.05614000  0.63430000  0.79788000  1.0
  C  C95  1  0.00906000  0.65820000  0.83902000  1.0
  C  C96  1  0.02588000  0.59244000  0.73706000  1.0
  C  C97  1  0.10994000  0.79442000  0.14092000  1.0
  C  C98  1  0.05344000  0.77234000  0.16510000  1.0
  C  C99  1  0.03238000  0.71058000  0.14170000  1.0
  C  C100  1  0.97950000  0.69026000  0.16362000  1.0
  C  C101  1  0.94792000  0.73110000  0.20960000  1.0
  C  C102  1  0.96980000  0.79286000  0.23476000  1.0
  C  C103  1  0.02194000  0.81328000  0.21172000  1.0
  C  C104  1  0.93626000  0.83672000  0.28504000  1.0
  Cd  Cd105  1  0.91758000  0.42136000  0.71344000  1.0
  Cd  Cd106  1  0.11010000  0.41922000  0.71838000  1.0
  Cd  Cd107  1  0.86476000  0.79216000  0.41622000  1.0
  Cd  Cd108  1  0.05560000  0.78738000  0.41226000  1.0
  H  H109  1  0.97328500  0.06820000  0.74498000  1.0
  H  H110  1  0.01184000  0.17028000  0.92680000  1.0
  H  H111  1  0.89310000  0.99678000  0.84996000  1.0
  H  H112  1  0.04260000  0.05500000  0.95592000  1.0
  H  H113  1  0.03850000  0.13610000  0.99566000  1.0
  H  H114  1  0.97204000  0.17808000  0.07950000  1.0
  H  H115  1  0.96064000  0.43196000  0.36334000  1.0
  H  H116  1  0.91164000  0.24118000  0.29374000  1.0
  H  H117  1  0.06700000  0.30968000  0.22548000  1.0
  H  H118  1  0.90000000  0.16630000  0.19918000  1.0
  H  H119  1  0.90740000  0.21214000  0.16236000  1.0
  H  H120  1  0.94691500  0.06700000  0.16284000  1.0
  H  H121  1  0.04694000  0.71310000  0.03472000  1.0
  H  H122  1  0.99216000  0.83792000  0.96760000  1.0
  H  H123  1  0.09494000  0.90378000  0.14035500  1.0
  H  H124  1  0.93074000  0.93216000  0.04598000  1.0
  H  H125  1  0.97146000  0.96436000  0.12020000  1.0
  H  H126  1  0.00522000  0.98924000  0.99396000  1.0
  H  H127  1  0.55320000  0.32128000  0.66450000  1.0
  H  H128  1  0.68450000  0.32244000  0.66214000  1.0
  H  H129  1  0.70414000  0.51550000  0.76366000  1.0
  H  H130  1  0.34586000  0.51316000  0.77292000  1.0
  H  H131  1  0.57318000  0.51474000  0.76626000  1.0
  H  H132  1  0.32356000  0.32136000  0.66650000  1.0
  H  H133  1  0.52540000  0.83594000  0.50534000  1.0
  H  H134  1  0.65712000  0.83770000  0.50616000  1.0
  H  H135  1  0.62552000  0.74306000  0.32274000  1.0
  H  H136  1  0.26376000  0.74126000  0.32042000  1.0
  H  H137  1  0.49364000  0.74112000  0.32152000  1.0
  H  H138  1  0.29620000  0.83016000  0.50362000  1.0
  H  H139  1  0.92158000  0.29096000  0.43662000  1.0
  H  H140  1  0.94560000  0.28562000  0.52844000  1.0
  H  H141  1  0.04088000  0.30382000  0.52968000  1.0
  H  H142  1  0.83646000  0.38100000  0.36890000  1.0
  H  H143  1  0.84274000  0.30648000  0.36336000  1.0
  H  H144  1  0.90944000  0.46858000  0.44776000  1.0
  H  H145  1  0.97546000  0.51230000  0.54502000  1.0
  H  H146  1  0.01416000  0.44834000  0.58960000  1.0
  H  H147  1  0.04088000  0.53282000  0.38902000  1.0
  H  H148  1  0.99512000  0.62594000  0.44342000  1.0
  H  H149  1  0.89816000  0.61524000  0.42012000  1.0
  H  H150  1  0.09212000  0.41448000  0.25870000  1.0
  H  H151  1  0.10456000  0.44702000  0.33498000  1.0
  H  H152  1  0.97730500  0.43604000  0.20774000  1.0
  H  H153  1  0.89488000  0.51454000  0.21176000  1.0
  H  H154  1  0.88252000  0.60094000  0.30328000  1.0
  H  H155  1  0.08818000  0.28328000  0.84750000  1.0
  H  H156  1  0.00096000  0.42084000  0.88436000  1.0
  H  H157  1  0.08582000  0.38696000  0.86984000  1.0
  H  H158  1  0.06438000  0.15336000  0.78934000  1.0
  H  H159  1  0.08600000  0.19332000  0.86478000  1.0
  H  H160  1  0.88694000  0.17328000  0.80680000  1.0
  H  H161  1  0.81772000  0.25610000  0.80656000  1.0
  H  H162  1  0.88030000  0.35292000  0.82734000  1.0
  H  H163  1  0.90288000  0.97934000  0.64064000  1.0
  H  H164  1  0.95200000  0.97642000  0.56178000  1.0
  H  H165  1  0.04894000  0.96918000  0.56382000  1.0
  H  H166  1  0.87758000  0.93498000  0.75016000  1.0
  H  H167  1  0.84822000  0.98316000  0.71876000  1.0
  H  H168  1  0.01108000  0.90328000  0.74414000  1.0
  H  H169  1  0.10238000  0.86508000  0.67846500  1.0
  H  H170  1  0.09648000  0.88458000  0.59506000  1.0
  H  H171  1  0.95066000  0.64748000  0.82632000  1.0
  H  H172  1  0.97118000  0.60538000  0.72578000  1.0
  H  H173  1  0.06262000  0.59584000  0.70836000  1.0
  H  H174  1  0.93442000  0.73150000  0.92012000  1.0
  H  H175  1  0.96430000  0.67934000  0.94580000  1.0
  H  H176  1  0.13704000  0.73412000  0.95618000  1.0
  H  H177  1  0.21838000  0.69226000  0.88428000  1.0
  H  H178  1  0.16914000  0.62794000  0.78378000  1.0
  H  H179  1  0.03826000  0.86092000  0.23008000  1.0
  H  H180  1  0.96278000  0.88280000  0.30132000  1.0
  H  H181  1  0.87736000  0.83822000  0.27142000  1.0
  H  H182  1  0.14128000  0.83564000  0.17514000  1.0
  H  H183  1  0.14878500  0.75912000  0.12336000  1.0
  H  H184  1  0.05670000  0.67808000  0.10636000  1.0
  H  H185  1  0.96308000  0.64270000  0.14500000  1.0
  H  H186  1  0.90692000  0.71448000  0.22600000  1.0
  N  N187  1  0.44128000  0.46968000  0.74706000  1.0
  N  N188  1  0.42922000  0.36514000  0.68908000  1.0
  N  N189  1  0.37214000  0.76248000  0.36262000  1.0
  N  N190  1  0.38974000  0.81098000  0.46248000  1.0
  O  O191  1  0.94118000  0.08878000  0.94702000  1.0
  O  O192  1  0.00156000  0.21142000  0.21492000  1.0
  O  O193  1  0.04442000  0.93536000  0.06104000  1.0
  O  O194  1  0.95604000  0.50362000  0.72440000  1.0
  O  O195  1  0.08138000  0.50182000  0.72768000  1.0
  O  O196  1  0.06362000  0.36984000  0.63578000  1.0
  O  O197  1  0.93834000  0.37124000  0.63204000  1.0
  O  O198  1  0.82726000  0.46914000  0.73742000  1.0
  O  O199  1  0.81830000  0.37122000  0.68686000  1.0
  O  O200  1  0.95912000  0.40298000  0.77830000  1.0
  O  O201  1  0.08360000  0.39868000  0.78046000  1.0
  O  O202  1  0.19872000  0.36932000  0.69230000  1.0
  O  O203  1  0.21098000  0.46646000  0.74748000  1.0
  O  O204  1  0.88738000  0.81416000  0.35420000  1.0
  O  O205  1  0.01146000  0.81080000  0.35114000  1.0
  O  O206  1  0.01860000  0.70794000  0.40860000  1.0
  O  O207  1  0.89518000  0.71266000  0.41348000  1.0
  O  O208  1  0.77804000  0.81600000  0.46194000  1.0
  O  O209  1  0.76202000  0.76744000  0.36910000  1.0
  O  O210  1  0.91384000  0.86664000  0.48610000  1.0
  O  O211  1  0.03790000  0.86304000  0.48264000  1.0
  O  O212  1  0.15878000  0.80794000  0.45828000  1.0
  O  O213  1  0.14136000  0.76368000  0.36530000  1.0
