# generated using pymatgen
data_Gd2H108(C32O5)3
_symmetry_space_group_name_H-M   'P 1'
_cell_length_a   7.33895000
_cell_length_b   16.96605649
_cell_length_c   17.50215000
_cell_angle_alpha   73.12106124
_cell_angle_beta   89.70200000
_cell_angle_gamma   89.28344301
_symmetry_Int_Tables_number   1
_chemical_formula_structural   Gd2H108(C32O5)3
_chemical_formula_sum   'Gd2 H108 C96 O15'
_cell_volume   2085.19893098
_cell_formula_units_Z   1
loop_
 _symmetry_equiv_pos_site_id
 _symmetry_equiv_pos_as_xyz
  1  'x, y, z'
loop_
 _atom_site_type_symbol
 _atom_site_label
 _atom_site_symmetry_multiplicity
 _atom_site_fract_x
 _atom_site_fract_y
 _atom_site_fract_z
 _atom_site_occupancy
  C  C0  1  0.15304000  0.15768000  0.78298000  1.0
  C  C1  1  0.11524000  0.01298000  0.15004000  1.0
  C  C2  1  0.96228000  0.17074000  0.97243500  1.0
  C  C3  1  0.79144000  0.84109500  0.20480000  1.0
  C  C4  1  0.81443000  0.98048000  0.87664000  1.0
  C  C5  1  0.18554500  0.85524500  0.02039000  1.0
  C  C6  1  0.91284000  0.61048000  0.51578000  1.0
  C  C7  1  0.80700000  0.52856000  0.56452000  1.0
  C  C8  1  0.99132000  0.48872000  0.60876000  1.0
  C  C9  1  0.09520000  0.55622000  0.53772000  1.0
  C  C10  1  0.92876000  0.91270000  0.51598000  1.0
  C  C11  1  0.04820000  0.90130000  0.59370000  1.0
  C  C12  1  0.19552000  0.96108000  0.54380000  1.0
  C  C13  1  0.11712000  0.94304000  0.46802000  1.0
  C  C14  1  0.02772000  0.56432000  0.89906000  1.0
  C  C15  1  0.17832000  0.56768000  0.96486000  1.0
  C  C16  1  0.31788000  0.54400000  0.90900000  1.0
  C  C17  1  0.15500000  0.49324000  0.88724000  1.0
  C  C18  1  0.16584000  0.23336000  0.70748000  1.0
  C  C19  1  0.36892000  0.25730000  0.71416000  1.0
  C  C20  1  0.41200000  0.33548000  0.64946000  1.0
  C  C21  1  0.39456000  0.31990000  0.56744000  1.0
  C  C22  1  0.20120000  0.29052000  0.55738000  1.0
  C  C23  1  0.15020000  0.21314000  0.62734000  1.0
  C  C24  1  0.02000000  0.31064000  0.70012000  1.0
  C  C25  1  0.07912000  0.39272000  0.62996000  1.0
  C  C26  1  0.27512000  0.39914000  0.66272000  1.0
  C  C27  1  0.07164000  0.36356000  0.55292000  1.0
  C  C28  1  0.85436000  0.92770000  0.81632000  1.0
  C  C29  1  0.99142000  0.86182000  0.85976000  1.0
  C  C30  1  0.01390000  0.79302000  0.81918000  1.0
  C  C31  1  0.83004000  0.75146000  0.81774000  1.0
  C  C32  1  0.69692000  0.81588000  0.77102000  1.0
  C  C33  1  0.67100000  0.88490000  0.80996000  1.0
  C  C34  1  0.93716000  0.96339000  0.72631000  1.0
  C  C35  1  0.96160000  0.89109000  0.68271000  1.0
  C  C36  1  0.09168000  0.82702000  0.73706000  1.0
  C  C37  1  0.77048000  0.85026000  0.68644000  1.0
  C  C38  1  0.19231000  0.76014500  0.05468000  1.0
  C  C39  1  0.36516000  0.73414000  0.10422000  1.0
  C  C40  1  0.37324000  0.63880000  0.14104000  1.0
  C  C41  1  0.20868000  0.60894000  0.19618000  1.0
  C  C42  1  0.03431000  0.63492000  0.14734500  1.0
  C  C43  1  0.02703000  0.72934000  0.11128500  1.0
  C  C44  1  0.18872000  0.71462000  0.98922000  1.0
  C  C45  1  0.19432000  0.62066000  0.02414000  1.0
  C  C46  1  0.37196000  0.59782000  0.07400000  1.0
  C  C47  1  0.02744000  0.59516000  0.08136000  1.0
  C  C48  1  0.75132000  0.77600000  0.28740000  1.0
  C  C49  1  0.59728000  0.81662000  0.32382000  1.0
  C  C50  1  0.50968000  0.75272000  0.39336000  1.0
  C  C51  1  0.42860000  0.68428000  0.36354000  1.0
  C  C52  1  0.58124000  0.64074000  0.33050000  1.0
  C  C53  1  0.67628000  0.70276000  0.26402000  1.0
  C  C54  1  0.90244000  0.73468000  0.35735000  1.0
  C  C55  1  0.80888000  0.66422000  0.43120000  1.0
  C  C56  1  0.65528000  0.71782000  0.45678000  1.0
  C  C57  1  0.72448000  0.60144000  0.39218000  1.0
  C  C58  1  0.15980000  0.03912000  0.22720000  1.0
  C  C59  1  0.35908000  0.06832000  0.22678000  1.0
  C  C60  1  0.39204000  0.10192000  0.29832000  1.0
  C  C61  1  0.26504000  0.17504000  0.29532000  1.0
  C  C62  1  0.06400000  0.14704000  0.29850000  1.0
  C  C63  1  0.02156000  0.10866000  0.23110000  1.0
  C  C64  1  0.12172000  0.97124000  0.31026000  1.0
  C  C65  1  0.15124000  0.00738000  0.38394000  1.0
  C  C66  1  0.35482000  0.03538000  0.37658000  1.0
  C  C67  1  0.02774000  0.08282000  0.37698000  1.0
  C  C68  1  0.00288000  0.24842000  0.99490000  1.0
  C  C69  1  0.84781000  0.26522000  0.04824000  1.0
  C  C70  1  0.90200000  0.33706000  0.07946000  1.0
  C  C71  1  0.07868000  0.32236000  0.12670000  1.0
  C  C72  1  0.23384000  0.29728000  0.07830000  1.0
  C  C73  1  0.18352000  0.22884000  0.04230000  1.0
  C  C74  1  0.04700000  0.32890000  0.92198000  1.0
  C  C75  1  0.10480000  0.40306000  0.95468000  1.0
  C  C76  1  0.93068000  0.41014000  0.00826000  1.0
  C  C77  1  0.27836000  0.37048000  0.00891500  1.0
  C  C78  1  0.61728000  0.55194000  0.59560000  1.0
  C  C79  1  0.60676000  0.59976000  0.64916000  1.0
  C  C80  1  0.44088000  0.63684000  0.66246000  1.0
  C  C81  1  0.27940000  0.62798000  0.62326000  1.0
  C  C82  1  0.45096000  0.54896000  0.55188000  1.0
  C  C83  1  0.27884000  0.58510000  0.56612000  1.0
  C  C84  1  0.40920000  0.96277000  0.55841000  1.0
  C  C85  1  0.45408000  0.02484000  0.59294000  1.0
  C  C86  1  0.61628000  0.06774000  0.57524000  1.0
  C  C87  1  0.75828000  0.03878000  0.53724000  1.0
  C  C88  1  0.56156000  0.92944000  0.52261000  1.0
  C  C89  1  0.74584000  0.96418000  0.51778000  1.0
  C  C90  1  0.83100000  0.54438000  0.87978000  1.0
  C  C91  1  0.81540000  0.51196000  0.81486000  1.0
  C  C92  1  0.67468000  0.46130000  0.80964000  1.0
  C  C93  1  0.52708000  0.45634000  0.85866000  1.0
  C  C94  1  0.66788000  0.55156000  0.92086000  1.0
  C  C95  1  0.50888000  0.50830000  0.90874000  1.0
  Gd  Gd96  1  0.21933000  0.03758000  0.93541500  1.0
  Gd  Gd97  1  0.79124000  0.96575500  0.05415000  1.0
  H  H98  1  0.77980000  0.48416000  0.53072000  1.0
  H  H99  1  0.91856000  0.65328000  0.55324000  1.0
  H  H100  1  0.00232000  0.50796000  0.66310000  1.0
  H  H101  1  0.12504000  0.53600000  0.48438000  1.0
  H  H102  1  0.11248000  0.83998000  0.59796000  1.0
  H  H103  1  0.89284000  0.85216000  0.50900000  1.0
  H  H104  1  0.14648000  0.02348000  0.54140000  1.0
  H  H105  1  0.18852000  0.88604000  0.46326000  1.0
  H  H106  1  0.17704000  0.51126000  0.01360000  1.0
  H  H107  1  0.05028000  0.62030000  0.84860000  1.0
  H  H108  1  0.33812000  0.60234000  0.85936000  1.0
  H  H109  1  0.17084000  0.48998000  0.82524000  1.0
  H  H110  1  0.46428000  0.20730000  0.70922000  1.0
  H  H111  1  0.39820000  0.26658000  0.77348000  1.0
  H  H112  1  0.55368000  0.35426000  0.65628000  1.0
  H  H113  1  0.42668000  0.37650000  0.51882000  1.0
  H  H114  1  0.49624000  0.27340000  0.56174000  1.0
  H  H115  1  0.19416000  0.27438000  0.50022000  1.0
  H  H116  1  0.00992000  0.19300000  0.61906000  1.0
  H  H117  1  0.24388000  0.16238000  0.62620000  1.0
  H  H118  1  0.00938000  0.32364000  0.75846000  1.0
  H  H119  1  0.88100000  0.29172000  0.68812000  1.0
  H  H120  1  0.33276000  0.45614000  0.66154000  1.0
  H  H121  1  0.26448000  0.39096000  0.72836000  1.0
  H  H122  1  0.10624000  0.41194000  0.49782000  1.0
  H  H123  1  0.92980000  0.34566000  0.54382000  1.0
  H  H124  1  0.93668000  0.83630000  0.92076000  1.0
  H  H125  1  0.12568000  0.89046000  0.86156000  1.0
  H  H126  1  0.11660000  0.74656000  0.84656000  1.0
  H  H127  1  0.84071000  0.70302000  0.78684000  1.0
  H  H128  1  0.77948000  0.72334000  0.87948000  1.0
  H  H129  1  0.56246000  0.78742000  0.77092000  1.0
  H  H130  1  0.57028000  0.93120000  0.77558000  1.0
  H  H131  1  0.60892000  0.85600000  0.86960000  1.0
  H  H132  1  0.07108000  0.99214000  0.72758000  1.0
  H  H133  1  0.84660000  0.01222000  0.69175000  1.0
  H  H134  1  0.11618000  0.77210000  0.71542000  1.0
  H  H135  1  0.22728000  0.85504000  0.73982000  1.0
  H  H136  1  0.77076000  0.80138000  0.65552000  1.0
  H  H137  1  0.66968000  0.89690000  0.65960000  1.0
  H  H138  1  0.35700000  0.76592000  0.15138000  1.0
  H  H139  1  0.48908000  0.75530000  0.06744000  1.0
  H  H140  1  0.50084000  0.61862000  0.17452000  1.0
  H  H141  1  0.21416000  0.54076000  0.22232000  1.0
  H  H142  1  0.20740000  0.63568000  0.24670000  1.0
  H  H143  1  0.91688000  0.60840000  0.18431750  1.0
  H  H144  1  0.89744000  0.74694000  0.07768000  1.0
  H  H145  1  0.03268000  0.75732000  0.16086500  1.0
  H  H146  1  0.30088000  0.73632000  0.94528000  1.0
  H  H147  1  0.05267000  0.72356000  0.96418000  1.0
  H  H148  1  0.38888000  0.52994000  0.09990000  1.0
  H  H149  1  0.49064000  0.62102000  0.03620500  1.0
  H  H150  1  0.02507000  0.52770000  0.11132000  1.0
  H  H151  1  0.89696000  0.61161000  0.04787000  1.0
  H  H152  1  0.48960000  0.84380000  0.27874000  1.0
  H  H153  1  0.65212000  0.86794000  0.34426000  1.0
  H  H154  1  0.39860000  0.78284000  0.41868000  1.0
  H  H155  1  0.35115000  0.63986000  0.41036000  1.0
  H  H156  1  0.32952000  0.71260000  0.31550000  1.0
  H  H157  1  0.52140000  0.59180000  0.30814000  1.0
  H  H158  1  0.79004000  0.67352000  0.24404000  1.0
  H  H159  1  0.58248000  0.72174000  0.21570000  1.0
  H  H160  1  0.96416000  0.78346000  0.37950000  1.0
  H  H161  1  0.01516000  0.70626000  0.33178000  1.0
  H  H162  1  0.58064000  0.68984000  0.51016000  1.0
  H  H163  1  0.71952000  0.76930000  0.47268000  1.0
  H  H164  1  0.65372000  0.54982000  0.43088000  1.0
  H  H165  1  0.83572000  0.57254000  0.36560000  1.0
  H  H166  1  0.39438000  0.11664000  0.17120000  1.0
  H  H167  1  0.45420000  0.01580000  0.23014000  1.0
  H  H168  1  0.53628000  0.12189500  0.29720500  1.0
  H  H169  1  0.29316000  0.19962000  0.34652000  1.0
  H  H170  1  0.29768000  0.22554000  0.24196000  1.0
  H  H171  1  0.96976000  0.19950000  0.29602000  1.0
  H  H172  1  0.87964000  0.08476000  0.23852000  1.0
  H  H173  1  0.01428000  0.15702000  0.17686000  1.0
  H  H174  1  0.21312000  0.91708000  0.31572000  1.0
  H  H175  1  0.98012000  0.94816000  0.31326000  1.0
  H  H176  1  0.39092000  0.06376000  0.42383000  1.0
  H  H177  1  0.44712000  0.98232000  0.37918000  1.0
  H  H178  1  0.05616000  0.11128000  0.42520000  1.0
  H  H179  1  0.88180000  0.06548000  0.38000000  1.0
  H  H180  1  0.80916000  0.21132000  0.09808000  1.0
  H  H181  1  0.72040000  0.28082000  0.01234500  1.0
  H  H182  1  0.78932000  0.35018000  0.11712000  1.0
  H  H183  1  0.11740000  0.37870000  0.14300000  1.0
  H  H184  1  0.05196000  0.27804000  0.18314000  1.0
  H  H185  1  0.35840000  0.27878000  0.11524000  1.0
  H  H186  1  0.29692000  0.21980500  0.00281000  1.0
  H  H187  1  0.18392000  0.17006000  0.08654000  1.0
  H  H188  1  0.92548000  0.34562000  0.88356000  1.0
  H  H189  1  0.15856000  0.31614000  0.88388000  1.0
  H  H190  1  0.91936000  0.46396000  0.03056000  1.0
  H  H191  1  0.80536000  0.41128000  0.97390000  1.0
  H  H192  1  0.34718000  0.41380000  0.03528000  1.0
  H  H193  1  0.38716000  0.35032000  0.97466000  1.0
  H  H194  1  0.44980000  0.74236000  0.67540000  1.0
  H  H195  1  0.72984000  0.61486000  0.67512000  1.0
  H  H196  1  0.15416000  0.65394000  0.63896000  1.0
  H  H197  1  0.44684000  0.51008000  0.51324000  1.0
  H  H198  1  0.67776000  0.12308000  0.65196000  1.0
  H  H199  1  0.35268000  0.04614000  0.62724000  1.0
  H  H200  1  0.88292000  0.07198000  0.53168000  1.0
  H  H201  1  0.53860000  0.87650000  0.50160000  1.0
  H  H202  1  0.71572000  0.36246000  0.78254000  1.0
  H  H203  1  0.92064000  0.52076000  0.77134000  1.0
  H  H204  1  0.41912000  0.41830000  0.84818000  1.0
  H  H205  1  0.66796000  0.59096000  0.95848000  1.0
  O  O206  1  0.86083000  0.10976000  0.01938000  1.0
  O  O207  1  0.08832000  0.15873500  0.92346500  1.0
  O  O208  1  0.21464000  0.03334000  0.07982000  1.0
  O  O209  1  0.95080000  0.98149500  0.15574500  1.0
  O  O210  1  0.21936000  0.08174000  0.79364000  1.0
  O  O211  1  0.14720000  0.16900000  0.85422000  1.0
  O  O212  1  0.30976500  0.90009750  0.97337750  1.0
  O  O213  1  0.04326000  0.89741000  0.03166000  1.0
  O  O214  1  0.93368000  0.01072500  0.91497500  1.0
  O  O215  1  0.68004000  0.96121750  0.92878250  1.0
  O  O216  1  0.84400000  0.91773250  0.19316750  1.0
  O  O217  1  0.72389000  0.83683750  0.13568250  1.0
  O  O218  1  0.43724000  0.68580000  0.71196000  1.0
  O  O219  1  0.63712000  0.13920000  0.59564000  1.0
  O  O220  1  0.67700000  0.41940000  0.75362000  1.0
