# generated using pymatgen
data_Cd2H15(C3O2)5
_symmetry_space_group_name_H-M   'P 1'
_cell_length_a   24.80190000
_cell_length_b   34.68800000
_cell_length_c   34.68800000
_cell_angle_alpha   89.99900000
_cell_angle_beta   90.00000000
_cell_angle_gamma   90.00000000
_symmetry_Int_Tables_number   1
_chemical_formula_structural   Cd2H15(C3O2)5
_chemical_formula_sum   'Cd32 H240 C240 O160'
_cell_volume   29843.06831561
_cell_formula_units_Z   16
loop_
 _symmetry_equiv_pos_site_id
 _symmetry_equiv_pos_as_xyz
  1  'x, y, z'
loop_
 _atom_site_type_symbol
 _atom_site_label
 _atom_site_symmetry_multiplicity
 _atom_site_fract_x
 _atom_site_fract_y
 _atom_site_fract_z
 _atom_site_occupancy
  Cd  Cd0  1  0.35051000  0.66444000  0.05727000  1.0
  Cd  Cd1  1  0.31765000  0.59976000  0.13310000  1.0
  Cd  Cd2  1  0.34178000  0.94563000  0.89722000  1.0
  Cd  Cd3  1  0.34959000  0.87004000  0.82793000  1.0
  Cd  Cd4  1  0.34539000  0.07880000  0.19340000  1.0
  Cd  Cd5  1  0.32020000  0.14792000  0.11991000  1.0
  Cd  Cd6  1  0.33929000  0.81269000  0.34382000  1.0
  Cd  Cd7  1  0.30432000  0.86535000  0.42810000  1.0
  Cd  Cd8  1  0.71852000  0.07690000  0.05726000  1.0
  Cd  Cd9  1  0.72561000  0.14371000  0.13511000  1.0
  Cd  Cd10  1  0.72240000  0.93798000  0.35319000  1.0
  Cd  Cd11  1  0.75370000  0.88035000  0.43489000  1.0
  Cd  Cd12  1  0.73270000  0.66186000  0.20740000  1.0
  Cd  Cd13  1  0.76358000  0.57719000  0.15445000  1.0
  Cd  Cd14  1  0.71509000  0.79369000  0.92160000  1.0
  Cd  Cd15  1  0.73635000  0.85109000  0.83750000  1.0
  Cd  Cd16  1  0.85417000  0.15399000  0.56813000  1.0
  Cd  Cd17  1  0.83455000  0.08620000  0.64422000  1.0
  Cd  Cd18  1  0.84986000  0.42543000  0.41978000  1.0
  Cd  Cd19  1  0.83202000  0.37060000  0.33399000  1.0
  Cd  Cd20  1  0.83191000  0.57532000  0.70251000  1.0
  Cd  Cd21  1  0.79854000  0.64131000  0.62802000  1.0
  Cd  Cd22  1  0.84420000  0.29964000  0.85714000  1.0
  Cd  Cd23  1  0.81018000  0.37344000  0.92369000  1.0
  Cd  Cd24  1  0.22037000  0.57462000  0.56020000  1.0
  Cd  Cd25  1  0.24341000  0.66200000  0.61112000  1.0
  Cd  Cd26  1  0.22323000  0.44352000  0.84314000  1.0
  Cd  Cd27  1  0.25793000  0.38713000  0.92530000  1.0
  Cd  Cd28  1  0.22688000  0.16513000  0.70148000  1.0
  Cd  Cd29  1  0.22860000  0.10027000  0.62198000  1.0
  Cd  Cd30  1  0.21158000  0.30316000  0.40487000  1.0
  Cd  Cd31  1  0.23216000  0.36001000  0.32090000  1.0
  H  H32  1  0.51253000  0.60736000  0.07299000  1.0
  H  H33  1  0.48658000  0.56025000  0.08537000  1.0
  H  H34  1  0.48597000  0.59223000  0.15888000  1.0
  H  H35  1  0.59224000  0.59168000  0.11390000  1.0
  H  H36  1  0.56661000  0.61080000  0.19835000  1.0
  H  H37  1  0.58532000  0.56112000  0.18930000  1.0
  H  H38  1  0.54510000  0.79604000  0.87483000  1.0
  H  H39  1  0.56425000  0.79391000  0.82479000  1.0
  H  H40  1  0.53518000  0.85855000  0.81458000  1.0
  H  H41  1  0.54076000  0.86631000  0.90272000  1.0
  H  H42  1  0.52256000  0.93418000  0.88857000  1.0
  H  H43  1  0.52362000  0.92523000  0.83755000  1.0
  H  H44  1  0.54690000  0.11973000  0.05666000  1.0
  H  H45  1  0.56263000  0.16877000  0.06924000  1.0
  H  H46  1  0.52884000  0.10424000  0.12753000  1.0
  H  H47  1  0.51692000  0.19233000  0.12398000  1.0
  H  H48  1  0.50663000  0.13952000  0.19261000  1.0
  H  H49  1  0.47782000  0.18664000  0.18627000  1.0
  H  H50  1  0.55908000  0.93463000  0.41037000  1.0
  H  H51  1  0.57973000  0.92180000  0.45886000  1.0
  H  H52  1  0.58116000  0.84845000  0.42385000  1.0
  H  H53  1  0.47686000  0.89562000  0.42702000  1.0
  H  H54  1  0.49966000  0.81091000  0.40513000  1.0
  H  H55  1  0.47620000  0.81967000  0.45385000  1.0
  H  H56  1  0.01832000  0.09759000  0.56879000  1.0
  H  H57  1  0.99256000  0.04972000  0.57639000  1.0
  H  H58  1  0.03945000  0.04709000  0.63581000  1.0
  H  H59  1  0.02697000  0.13519000  0.63784000  1.0
  H  H60  1  0.05490000  0.12312000  0.70606000  1.0
  H  H61  1  0.07101000  0.07379000  0.69529000  1.0
  H  H62  1  0.01602000  0.43762000  0.36824000  1.0
  H  H63  1  0.00144000  0.42476000  0.31889000  1.0
  H  H64  1  0.04192000  0.37083000  0.38406000  1.0
  H  H65  1  0.02291000  0.36034000  0.29717000  1.0
  H  H66  1  0.04389000  0.29859000  0.35459000  1.0
  H  H67  1  0.06435000  0.29926000  0.30474000  1.0
  H  H68  1  0.99348000  0.63331000  0.68775000  1.0
  H  H69  1  0.96846000  0.67986000  0.67236000  1.0
  H  H70  1  0.96823000  0.64310000  0.60096000  1.0
  H  H71  1  0.07383000  0.64619000  0.64663000  1.0
  H  H72  1  0.05077000  0.61993000  0.56414000  1.0
  H  H73  1  0.06659000  0.67078000  0.56836000  1.0
  H  H74  1  0.06117000  0.43905000  0.90171000  1.0
  H  H75  1  0.08477000  0.43186000  0.95059000  1.0
  H  H76  1  0.08593000  0.35503000  0.92352000  1.0
  H  H77  1  0.98105000  0.40158000  0.92616000  1.0
  H  H78  1  0.00548000  0.31443000  0.91538000  1.0
  H  H79  1  0.98077000  0.33054000  0.96174000  1.0
  H  H80  1  0.25309000  0.71455000  0.17934000  1.0
  H  H81  1  0.27993000  0.74834000  0.14426000  1.0
  H  H82  1  0.37653000  0.72918000  0.17720000  1.0
  H  H83  1  0.28725000  0.74795000  0.23532000  1.0
  H  H84  1  0.39097000  0.72421000  0.26063000  1.0
  H  H85  1  0.40861000  0.76703000  0.23451000  1.0
  H  H86  1  0.26558000  0.81593000  0.93598000  1.0
  H  H87  1  0.29684000  0.84494000  0.97318000  1.0
  H  H88  1  0.38700000  0.80589000  0.93772000  1.0
  H  H89  1  0.29766000  0.76211000  0.98021000  1.0
  H  H90  1  0.38025000  0.72012000  0.94444000  1.0
  H  H91  1  0.42099000  0.74986000  0.97569000  1.0
  H  H92  1  0.29864000  0.05239000  0.95851000  1.0
  H  H93  1  0.36727000  0.04648000  0.97417000  1.0
  H  H94  1  0.27096000  0.00065000  0.01103000  1.0
  H  H95  1  0.35935000  0.05439000  0.04163000  1.0
  H  H96  1  0.25474000  0.02466000  0.07805000  1.0
  H  H97  1  0.31446000  0.99868000  0.09228000  1.0
  H  H98  1  0.23392000  0.94199000  0.33313000  1.0
  H  H99  1  0.25592000  0.91621000  0.29044000  1.0
  H  H100  1  0.33752000  0.96346000  0.34001000  1.0
  H  H101  1  0.29829000  0.96803000  0.25625000  1.0
  H  H102  1  0.37035000  0.02111000  0.30490000  1.0
  H  H103  1  0.40625000  0.98843000  0.27395000  1.0
  H  H104  1  0.67747000  0.03161000  0.27366000  1.0
  H  H105  1  0.64868000  0.99093000  0.24878000  1.0
  H  H106  1  0.77229000  0.00032000  0.24243000  1.0
  H  H107  1  0.67940000  0.02290000  0.18864000  1.0
  H  H108  1  0.80321000  0.03167000  0.18350000  1.0
  H  H109  1  0.77173000  0.99612000  0.15252000  1.0
  H  H110  1  0.66543000  0.75441000  0.28262000  1.0
  H  H111  1  0.69085000  0.78014000  0.24143000  1.0
  H  H112  1  0.77912000  0.75307000  0.29671000  1.0
  H  H113  1  0.71788000  0.82958000  0.28999000  1.0
  H  H114  1  0.81401000  0.80186000  0.34057000  1.0
  H  H115  1  0.82558000  0.83755000  0.30330000  1.0
  H  H116  1  0.67586000  0.69952000  0.00139000  1.0
  H  H117  1  0.65664000  0.73981000  0.03081000  1.0
  H  H118  1  0.77188000  0.74190000  0.03684000  1.0
  H  H119  1  0.70746000  0.67147000  0.06405000  1.0
  H  H120  1  0.82042000  0.67028000  0.07089000  1.0
  H  H121  1  0.80523000  0.71341000  0.09852000  1.0
  H  H122  1  0.72513000  0.02284000  0.94253000  1.0
  H  H123  1  0.66931000  0.99664000  0.96360000  1.0
  H  H124  1  0.77767000  0.96988000  0.99450000  1.0
  H  H125  1  0.71696000  0.94532000  0.92155000  1.0
  H  H126  1  0.82317000  0.91920000  0.93466000  1.0
  H  H127  1  0.78946000  0.89922000  0.97653000  1.0
  H  H128  1  0.76740000  0.20347000  0.69049000  1.0
  H  H129  1  0.81114000  0.23618000  0.66456000  1.0
  H  H130  1  0.88985000  0.19850000  0.70687000  1.0
  H  H131  1  0.79312000  0.22825000  0.75318000  1.0
  H  H132  1  0.86776000  0.18899000  0.79535000  1.0
  H  H133  1  0.91587000  0.21952000  0.77093000  1.0
  H  H134  1  0.87562000  0.20843000  0.45470000  1.0
  H  H135  1  0.91460000  0.24107000  0.48389000  1.0
  H  H136  1  0.80140000  0.25971000  0.50012000  1.0
  H  H137  1  0.85797000  0.27499000  0.42297000  1.0
  H  H138  1  0.75075000  0.29396000  0.42522000  1.0
  H  H139  1  0.77004000  0.31890000  0.46909000  1.0
  H  H140  1  0.74091000  0.52759000  0.57602000  1.0
  H  H141  1  0.76114000  0.49340000  0.61297000  1.0
  H  H142  1  0.86259000  0.50958000  0.58750000  1.0
  H  H143  1  0.78192000  0.49416000  0.52237000  1.0
  H  H144  1  0.88879000  0.51537000  0.50467000  1.0
  H  H145  1  0.90225000  0.47316000  0.53287000  1.0
  H  H146  1  0.74415000  0.42056000  0.80896000  1.0
  H  H147  1  0.77717000  0.38890000  0.77479000  1.0
  H  H148  1  0.86814000  0.42434000  0.79297000  1.0
  H  H149  1  0.77556000  0.48308000  0.79395000  1.0
  H  H150  1  0.86409000  0.51849000  0.81414000  1.0
  H  H151  1  0.90115000  0.48764000  0.78213000  1.0
  H  H152  1  0.31272000  0.57402000  0.69551000  1.0
  H  H153  1  0.30156000  0.52981000  0.66865000  1.0
  H  H154  1  0.20252000  0.56896000  0.70610000  1.0
  H  H155  1  0.26774000  0.49642000  0.72575000  1.0
  H  H156  1  0.17079000  0.53594000  0.76480000  1.0
  H  H157  1  0.15478000  0.49479000  0.73566000  1.0
  H  H158  1  0.33770000  0.32164000  0.82375000  1.0
  H  H159  1  0.29967000  0.34133000  0.78367000  1.0
  H  H160  1  0.23555000  0.29198000  0.84150000  1.0
  H  H161  1  0.28701000  0.27205000  0.76366000  1.0
  H  H162  1  0.24331000  0.21603000  0.81706000  1.0
  H  H163  1  0.18431000  0.24152000  0.79978000  1.0
  H  H164  1  0.30409000  0.21362000  0.57413000  1.0
  H  H165  1  0.27309000  0.24829000  0.60631000  1.0
  H  H166  1  0.17978000  0.22221000  0.57236000  1.0
  H  H167  1  0.26987000  0.24216000  0.51517000  1.0
  H  H168  1  0.17400000  0.21061000  0.48716000  1.0
  H  H169  1  0.14567000  0.25127000  0.51230000  1.0
  H  H170  1  0.15573000  0.47470000  0.49395000  1.0
  H  H171  1  0.19718000  0.45260000  0.53054000  1.0
  H  H172  1  0.27306000  0.48325000  0.47350000  1.0
  H  H173  1  0.20028000  0.41256000  0.46329000  1.0
  H  H174  1  0.28960000  0.44412000  0.41143000  1.0
  H  H175  1  0.31266000  0.40919000  0.44661000  1.0
  H  H176  1  0.22605000  0.41911000  0.20754000  1.0
  H  H177  1  0.29831000  0.41301000  0.21402000  1.0
  H  H178  1  0.25989000  0.47389000  0.26786000  1.0
  H  H179  1  0.27926000  0.48237000  0.18095000  1.0
  H  H180  1  0.23794000  0.54279000  0.23177000  1.0
  H  H181  1  0.30865000  0.53725000  0.24439000  1.0
  H  H182  1  0.34734000  0.75599000  0.77156000  1.0
  H  H183  1  0.39902000  0.78013000  0.74345000  1.0
  H  H184  1  0.30220000  0.81469000  0.71488000  1.0
  H  H185  1  0.32441000  0.72817000  0.70576000  1.0
  H  H186  1  0.23106000  0.77325000  0.67444000  1.0
  H  H187  1  0.29000000  0.78049000  0.64427000  1.0
  H  H188  1  0.27342000  0.33468000  0.04097000  1.0
  H  H189  1  0.34264000  0.33195000  0.02441000  1.0
  H  H190  1  0.28830000  0.27282000  0.98044000  1.0
  H  H191  1  0.29980000  0.26834000  0.06839000  1.0
  H  H192  1  0.24436000  0.21075000  0.02331000  1.0
  H  H193  1  0.31395000  0.20666000  0.00749000  1.0
  H  H194  1  0.29749000  0.92226000  0.54252000  1.0
  H  H195  1  0.22674000  0.91105000  0.53440000  1.0
  H  H196  1  0.24942000  0.97425000  0.48200000  1.0
  H  H197  1  0.24753000  0.98263000  0.57000000  1.0
  H  H198  1  0.26528000  0.04398000  0.51092000  1.0
  H  H199  1  0.19360000  0.03427000  0.51493000  1.0
  H  H200  1  0.85072000  0.30409000  0.22510000  1.0
  H  H201  1  0.78561000  0.32723000  0.21836000  1.0
  H  H202  1  0.77833000  0.26261000  0.27615000  1.0
  H  H203  1  0.77004000  0.25957000  0.18796000  1.0
  H  H204  1  0.76073000  0.19607000  0.24773000  1.0
  H  H205  1  0.69646000  0.21841000  0.23762000  1.0
  H  H206  1  0.77133000  0.82823000  0.55057000  1.0
  H  H207  1  0.83774000  0.81922000  0.53079000  1.0
  H  H208  1  0.77477000  0.76465000  0.48957000  1.0
  H  H209  1  0.77736000  0.76160000  0.57794000  1.0
  H  H210  1  0.71261000  0.70855000  0.53797000  1.0
  H  H211  1  0.77737000  0.69858000  0.51567000  1.0
  H  H212  1  0.78776000  0.45863000  0.10983000  1.0
  H  H213  1  0.85111000  0.48114000  0.09623000  1.0
  H  H214  1  0.77546000  0.51504000  0.04352000  1.0
  H  H215  1  0.79771000  0.42805000  0.04328000  1.0
  H  H216  1  0.72055000  0.46060000  0.99218000  1.0
  H  H217  1  0.78131000  0.48597000  0.97792000  1.0
  H  H218  1  0.77857000  0.03277000  0.75189000  1.0
  H  H219  1  0.84846000  0.01747000  0.75189000  1.0
  H  H220  1  0.79318000  0.96882000  0.69501000  1.0
  H  H221  1  0.77820000  0.96365000  0.78267000  1.0
  H  H222  1  0.72209000  0.91503000  0.72710000  1.0
  H  H223  1  0.79199000  0.89926000  0.72567000  1.0
  H  H224  1  0.83460000  0.16833000  0.00997000  1.0
  H  H225  1  0.82991000  0.20536000  0.04685000  1.0
  H  H226  1  0.72633000  0.19776000  0.00127000  1.0
  H  H227  1  0.82715000  0.24587000  0.98395000  1.0
  H  H228  1  0.72606000  0.23754000  0.93714000  1.0
  H  H229  1  0.71641000  0.27331000  0.97473000  1.0
  H  H230  1  0.82100000  0.02320000  0.42291000  1.0
  H  H231  1  0.84782000  0.99112000  0.45943000  1.0
  H  H232  1  0.73033000  0.02228000  0.46621000  1.0
  H  H233  1  0.83341000  0.03123000  0.51423000  1.0
  H  H234  1  0.72446000  0.07194000  0.51905000  1.0
  H  H235  1  0.73112000  0.03100000  0.55134000  1.0
  H  H236  1  0.83844000  0.59891000  0.29414000  1.0
  H  H237  1  0.86221000  0.55936000  0.26454000  1.0
  H  H238  1  0.74726000  0.56005000  0.30169000  1.0
  H  H239  1  0.84203000  0.50320000  0.30059000  1.0
  H  H240  1  0.74112000  0.50517000  0.35037000  1.0
  H  H241  1  0.73243000  0.47762000  0.30627000  1.0
  H  H242  1  0.70933000  0.65639000  0.76092000  1.0
  H  H243  1  0.70952000  0.69685000  0.72775000  1.0
  H  H244  1  0.81662000  0.69909000  0.75800000  1.0
  H  H245  1  0.71875000  0.70860000  0.81121000  1.0
  H  H246  1  0.81468000  0.71125000  0.84889000  1.0
  H  H247  1  0.83461000  0.74301000  0.80986000  1.0
  H  H248  1  0.22460000  0.58296000  0.00236000  1.0
  H  H249  1  0.22795000  0.54219000  0.03503000  1.0
  H  H250  1  0.33356000  0.54325000  0.00060000  1.0
  H  H251  1  0.23156000  0.52911000  0.95263000  1.0
  H  H252  1  0.32396000  0.52970000  0.91046000  1.0
  H  H253  1  0.34958000  0.49897000  0.94861000  1.0
  H  H254  1  0.34155000  0.07224000  0.74548000  1.0
  H  H255  1  0.34252000  0.03902000  0.70496000  1.0
  H  H256  1  0.23583000  0.03617000  0.74654000  1.0
  H  H257  1  0.34080000  0.99300000  0.76423000  1.0
  H  H258  1  0.23001000  0.98986000  0.80249000  1.0
  H  H259  1  0.23973000  0.95396000  0.76501000  1.0
  H  H260  1  0.21839000  0.15714000  0.24983000  1.0
  H  H261  1  0.21596000  0.19708000  0.21595000  1.0
  H  H262  1  0.32405000  0.19796000  0.25134000  1.0
  H  H263  1  0.21934000  0.22130000  0.29205000  1.0
  H  H264  1  0.31559000  0.22159000  0.33439000  1.0
  H  H265  1  0.33500000  0.25346000  0.29526000  1.0
  H  H266  1  0.22927000  0.72707000  0.40484000  1.0
  H  H267  1  0.21265000  0.75344000  0.44850000  1.0
  H  H268  1  0.32805000  0.72677000  0.45031000  1.0
  H  H269  1  0.22581000  0.68131000  0.47034000  1.0
  H  H270  1  0.32017000  0.63978000  0.47177000  1.0
  H  H271  1  0.34308000  0.67977000  0.50127000  1.0
  C  C272  1  0.36895000  0.70972000  0.00428000  1.0
  C  C273  1  0.30409000  0.68931000  0.13676000  1.0
  C  C274  1  0.29344000  0.55719000  0.18710000  1.0
  C  C275  1  0.43118000  0.60627000  0.09435000  1.0
  C  C276  1  0.28155000  0.58927000  0.04786000  1.0
  C  C277  1  0.33333333  0.99821000  0.94455000  1.0
  C  C278  1  0.31848000  0.85920000  0.91478000  1.0
  C  C279  1  0.35358000  0.81628000  0.78162000  1.0
  C  C280  1  0.44893000  0.91161000  0.86483000  1.0
  C  C281  1  0.29131000  0.94830000  0.81438000  1.0
  C  C282  1  0.35862000  0.03134000  0.24531000  1.0
  C  C283  1  0.31090000  0.05828000  0.10978000  1.0
  C  C284  1  0.30024000  0.19215000  0.06637000  1.0
  C  C285  1  0.42804000  0.14111000  0.16592000  1.0
  C  C286  1  0.27408000  0.15301000  0.20302000  1.0
  C  C287  1  0.36085000  0.77599000  0.28504000  1.0
  C  C288  1  0.28716000  0.89452000  0.34372000  1.0
  C  C289  1  0.27891000  0.90192000  0.48608000  1.0
  C  C290  1  0.41944000  0.83362000  0.40983000  1.0
  C  C291  1  0.27333000  0.77949000  0.41312000  1.0
  C  C292  1  0.71508000  0.03141000  0.00275000  1.0
  C  C293  1  0.75061000  0.05531000  0.14123000  1.0
  C  C294  1  0.73276000  0.18782000  0.19054000  1.0
  C  C295  1  0.62265000  0.12812000  0.08568000  1.0
  C  C296  1  0.77632000  0.15734000  0.05409000  1.0
  C  C297  1  0.70086000  0.97712000  0.29594000  1.0
  C  C298  1  0.77518000  0.85646000  0.34951000  1.0
  C  C299  1  0.77871000  0.84075000  0.49094000  1.0
  C  C300  1  0.63914000  0.91174000  0.41559000  1.0
  C  C301  1  0.78392000  0.96735000  0.42597000  1.0
  C  C302  1  0.71418000  0.72148000  0.24366000  1.0
  C  C303  1  0.77432000  0.66103000  0.12241000  1.0
  C  C304  1  0.79036000  0.51933000  0.11817000  1.0
  C  C305  1  0.64758000  0.60205000  0.17851000  1.0
  C  C306  1  0.79847000  0.59230000  0.23961000  1.0
  C  C307  1  0.70074000  0.75369000  0.97951000  1.0
  C  C308  1  0.76330000  0.87690000  0.92180000  1.0
  C  C309  1  0.75181000  0.89059000  0.77950000  1.0
  C  C310  1  0.62591000  0.81514000  0.86177000  1.0
  C  C311  1  0.77336000  0.76560000  0.84660000  1.0
  C  C312  1  0.86623000  0.20028000  0.51489000  1.0
  C  C313  1  0.82125000  0.17583000  0.65177000  1.0
  C  C314  1  0.82002000  0.04240000  0.69912000  1.0
  C  C315  1  0.94014000  0.09410000  0.59588000  1.0
  C  C316  1  0.78506000  0.07839000  0.56214000  1.0
  C  C317  1  0.86205000  0.46308000  0.47934000  1.0
  C  C318  1  0.80448000  0.34157000  0.41712000  1.0
  C  C319  1  0.81860000  0.33248000  0.27487000  1.0
  C  C320  1  0.94025000  0.40895000  0.35937000  1.0
  C  C321  1  0.79062000  0.45487000  0.34590000  1.0
  C  C322  1  0.84992000  0.52903000  0.75470000  1.0
  C  C323  1  0.78702000  0.55175000  0.62212000  1.0
  C  C324  1  0.77304000  0.68501000  0.57530000  1.0
  C  C325  1  0.91252000  0.63373000  0.66569000  1.0
  C  C326  1  0.76370000  0.65049000  0.71375000  1.0
  C  C327  1  0.86238000  0.24844000  0.80979000  1.0
  C  C328  1  0.79778000  0.37979000  0.83428000  1.0
  C  C329  1  0.78288000  0.42571000  0.96742000  1.0
  C  C330  1  0.92468000  0.33670000  0.91562000  1.0
  C  C331  1  0.77619000  0.28738000  0.93225000  1.0
  C  C332  1  0.20662000  0.51318000  0.52573000  1.0
  C  C333  1  0.26454000  0.57983000  0.64441000  1.0
  C  C334  1  0.26058000  0.72286000  0.64562000  1.0
  C  C335  1  0.13077000  0.63297000  0.58377000  1.0
  C  C336  1  0.28053000  0.64607000  0.52653000  1.0
  C  C337  1  0.20175000  0.48323000  0.78622000  1.0
  C  C338  1  0.27687000  0.36218000  0.83971000  1.0
  C  C339  1  0.28428000  0.34852000  0.98181000  1.0
  C  C340  1  0.14220000  0.41787000  0.90713000  1.0
  C  C341  1  0.28673000  0.47401000  0.91488000  1.0
  C  C342  1  0.22737000  0.20902000  0.75728000  1.0
  C  C343  1  0.25379000  0.18867000  0.61707000  1.0
  C  C344  1  0.23117000  0.05737000  0.56554000  1.0
  C  C345  1  0.12939000  0.11434000  0.67556000  1.0
  C  C346  1  0.28471000  0.08466000  0.70065000  1.0
  C  C347  1  0.19493000  0.26505000  0.46359000  1.0
  C  C348  1  0.25766000  0.38680000  0.40497000  1.0
  C  C349  1  0.24973000  0.39916000  0.26314000  1.0
  C  C350  1  0.12302000  0.32190000  0.34331000  1.0
  C  C351  1  0.27220000  0.27506000  0.33131000  1.0
  C  C352  1  0.48767000  0.59103000  0.09410000  1.0
  C  C353  1  0.51216000  0.59322000  0.13374000  1.0
  C  C354  1  0.56573000  0.59303000  0.13885000  1.0
  C  C355  1  0.58923000  0.59122000  0.17877000  1.0
  C  C356  1  0.56754000  0.81121000  0.85160000  1.0
  C  C357  1  0.54310000  0.85011000  0.84421000  1.0
  C  C358  1  0.53313000  0.87487000  0.87308000  1.0
  C  C359  1  0.50914000  0.91394000  0.86569000  1.0
  C  C360  1  0.56476000  0.13839000  0.07933000  1.0
  C  C361  1  0.53347000  0.13323000  0.11609000  1.0
  C  C362  1  0.51273000  0.16331000  0.13536000  1.0
  C  C363  1  0.48285000  0.15792000  0.17261000  1.0
  C  C364  1  0.58147000  0.91320000  0.42805000  1.0
  C  C365  1  0.55584000  0.87407000  0.42429000  1.0
  C  C366  1  0.50211000  0.87011000  0.42427000  1.0
  C  C367  1  0.47631000  0.83087000  0.42387000  1.0
  C  C368  1  0.99589000  0.07890000  0.58929000  1.0
  C  C369  1  0.02660000  0.07554000  0.62647000  1.0
  C  C370  1  0.03896000  0.10669000  0.64765000  1.0
  C  C371  1  0.07210000  0.10369000  0.68378000  1.0
  C  C372  1  0.99819000  0.41511000  0.34937000  1.0
  C  C373  1  0.02868000  0.37817000  0.35511000  1.0
  C  C374  1  0.03703000  0.35339000  0.32600000  1.0
  C  C375  1  0.06536000  0.31565000  0.33222000  1.0
  C  C376  1  0.96917000  0.64859000  0.66555000  1.0
  C  C377  1  0.99410000  0.64375000  0.62629000  1.0
  C  C378  1  0.04772000  0.64338000  0.62158000  1.0
  C  C379  1  0.07188000  0.64199000  0.58185000  1.0
  C  C380  1  0.08508000  0.41988000  0.92090000  1.0
  C  C381  1  0.06011000  0.38036000  0.92230000  1.0
  C  C382  1  0.00652000  0.37607000  0.92503000  1.0
  C  C383  1  0.98140000  0.33693000  0.93039000  1.0
  C  C384  1  0.28915000  0.72256000  0.16206000  1.0
  C  C385  1  0.33568000  0.73192000  0.18830000  1.0
  C  C386  1  0.32806000  0.74516000  0.22423000  1.0
  C  C387  1  0.37546000  0.75243000  0.25040000  1.0
  C  C388  1  0.30352000  0.83036000  0.94505000  1.0
  C  C389  1  0.34704000  0.80040000  0.94945000  1.0
  C  C390  1  0.33778000  0.76760000  0.96880000  1.0
  C  C391  1  0.38041000  0.73683000  0.97174000  1.0
  C  C392  1  0.32767000  0.03172000  0.97137000  1.0
  C  C393  1  0.30575000  0.01968000  0.01004000  1.0
  C  C394  1  0.32444000  0.03543000  0.04277000  1.0
  C  C395  1  0.29921000  0.02673000  0.08136000  1.0
  C  C396  1  0.26858000  0.92737000  0.31910000  1.0
  C  C397  1  0.31342000  0.95631000  0.31480000  1.0
  C  C398  1  0.32213000  0.97516000  0.28157000  1.0
  C  C399  1  0.36744000  0.00385000  0.27799000  1.0
  C  C400  1  0.68598000  0.00224000  0.26250000  1.0
  C  C401  1  0.73089000  0.00533000  0.23344000  1.0
  C  C402  1  0.72089000  0.01789000  0.19754000  1.0
  C  C403  1  0.76531000  0.02350000  0.16847000  1.0
  C  C404  1  0.70124000  0.75847000  0.26383000  1.0
  C  C405  1  0.74790000  0.77304000  0.28746000  1.0
  C  C406  1  0.74925000  0.80981000  0.29947000  1.0
  C  C407  1  0.79515000  0.82527000  0.32330000  1.0
  C  C408  1  0.68982000  0.72763000  0.01308000  1.0
  C  C409  1  0.73887000  0.72129000  0.03787000  1.0
  C  C410  1  0.74062000  0.69200000  0.06316000  1.0
  C  C411  1  0.78920000  0.68528000  0.08828000  1.0
  C  C412  1  0.71176000  0.00597000  0.96800000  1.0
  C  C413  1  0.74781000  0.97124000  0.97157000  1.0
  C  C414  1  0.74533000  0.94283000  0.94535000  1.0
  C  C415  1  0.78386000  0.90928000  0.94636000  1.0
  C  C416  1  0.80899000  0.20783000  0.67937000  1.0
  C  C417  1  0.84849000  0.20736000  0.71238000  1.0
  C  C418  1  0.83452000  0.21948000  0.74774000  1.0
  C  C419  1  0.87343000  0.21730000  0.78101000  1.0
  C  C420  1  0.87490000  0.22650000  0.48114000  1.0
  C  C421  1  0.83089000  0.25616000  0.47719000  1.0
  C  C422  1  0.82882000  0.27914000  0.44605000  1.0
  C  C423  1  0.78447000  0.30829000  0.44064000  1.0
  C  C424  1  0.77395000  0.51885000  0.59584000  1.0
  C  C425  1  0.82356000  0.50816000  0.57324000  1.0
  C  C426  1  0.82081000  0.49552000  0.53673000  1.0
  C  C427  1  0.87162000  0.48744000  0.51433000  1.0
  C  C428  1  0.78264000  0.40583000  0.80168000  1.0
  C  C429  1  0.82694000  0.43481000  0.79530000  1.0
  C  C430  1  0.81673000  0.47263000  0.79156000  1.0
  C  C431  1  0.86142000  0.50166000  0.78700000  1.0
  C  C432  1  0.28278000  0.55713000  0.67872000  1.0
  C  C433  1  0.23549000  0.54833000  0.70445000  1.0
  C  C434  1  0.23491000  0.51714000  0.72737000  1.0
  C  C435  1  0.18721000  0.50862000  0.75286000  1.0
  C  C436  1  0.29705000  0.33070000  0.81386000  1.0
  C  C437  1  0.26035000  0.29619000  0.81597000  1.0
  C  C438  1  0.26056000  0.26896000  0.78848000  1.0
  C  C439  1  0.22655000  0.23331000  0.79291000  1.0
  C  C440  1  0.26664000  0.22109000  0.59006000  1.0
  C  C441  1  0.22079000  0.22657000  0.56211000  1.0
  C  C442  1  0.22895000  0.23790000  0.52557000  1.0
  C  C443  1  0.18248000  0.24020000  0.49773000  1.0
  C  C444  1  0.19636000  0.47478000  0.50747000  1.0
  C  C445  1  0.23847000  0.46450000  0.47795000  1.0
  C  C446  1  0.23425000  0.43163000  0.45775000  1.0
  C  C447  1  0.27734000  0.41931000  0.42974000  1.0
  C  C448  1  0.26028000  0.42275000  0.22786000  1.0
  C  C449  1  0.26496000  0.46475000  0.23805000  1.0
  C  C450  1  0.27482000  0.49132000  0.21085000  1.0
  C  C451  1  0.27813000  0.53332000  0.22126000  1.0
  C  C452  1  0.35738000  0.78247000  0.75501000  1.0
  C  C453  1  0.31856000  0.78645000  0.72194000  1.0
  C  C454  1  0.30662000  0.75615000  0.69945000  1.0
  C  C455  1  0.27018000  0.76072000  0.66510000  1.0
  C  C456  1  0.30001000  0.32585000  0.01675000  1.0
  C  C457  1  0.29310000  0.28335000  0.00979000  1.0
  C  C458  1  0.29498000  0.25799000  0.03899000  1.0
  C  C459  1  0.28710000  0.21569000  0.03151000  1.0
  C  C460  1  0.26367000  0.92382000  0.52156000  1.0
  C  C461  1  0.25290000  0.96540000  0.51200000  1.0
  C  C462  1  0.24546000  0.99158000  0.53997000  1.0
  C  C463  1  0.23299000  0.03284000  0.53012000  1.0
  C  C464  1  0.81087000  0.31003000  0.23846000  1.0
  C  C465  1  0.78308000  0.27234000  0.24651000  1.0
  C  C466  1  0.76570000  0.24981000  0.21760000  1.0
  C  C467  1  0.73726000  0.21240000  0.22587000  1.0
  C  C468  1  0.79376000  0.81695000  0.52524000  1.0
  C  C469  1  0.77886000  0.77541000  0.51890000  1.0
  C  C470  1  0.77345000  0.75092000  0.54858000  1.0
  C  C471  1  0.75701000  0.70973000  0.54195000  1.0
  C  C472  1  0.80654000  0.48422000  0.09601000  1.0
  C  C473  1  0.78719000  0.48708000  0.05503000  1.0
  C  C474  1  0.78632000  0.45611000  0.03188000  1.0
  C  C475  1  0.76528000  0.45924000  0.99136000  1.0
  C  C476  1  0.81079000  0.01874000  0.73460000  1.0
  C  C477  1  0.79305000  0.97845000  0.72486000  1.0
  C  C478  1  0.77834000  0.95387000  0.75286000  1.0
  C  C479  1  0.76052000  0.91350000  0.74347000  1.0
  C  C480  1  0.80659000  0.18481000  0.02876000  1.0
  C  C481  1  0.76819000  0.20691000  0.00340000  1.0
  C  C482  1  0.78524000  0.23679000  0.98205000  1.0
  C  C483  1  0.74673000  0.25845000  0.95641000  1.0
  C  C484  1  0.81042000  0.00116000  0.44486000  1.0
  C  C485  1  0.77269000  0.01919000  0.47370000  1.0
  C  C486  1  0.79097000  0.03426000  0.50686000  1.0
  C  C487  1  0.75346000  0.05350000  0.53508000  1.0
  C  C488  1  0.82593000  0.57555000  0.27416000  1.0
  C  C489  1  0.78744000  0.54933000  0.29514000  1.0
  C  C490  1  0.80192000  0.51403000  0.30721000  1.0
  C  C491  1  0.76223000  0.48831000  0.32766000  1.0
  C  C492  1  0.73510000  0.67518000  0.74264000  1.0
  C  C493  1  0.77523000  0.69581000  0.76786000  1.0
  C  C494  1  0.76008000  0.71201000  0.80129000  1.0
  C  C495  1  0.79996000  0.73218000  0.82708000  1.0
  C  C496  1  0.25201000  0.56438000  0.01962000  1.0
  C  C497  1  0.29109000  0.54470000  0.99286000  1.0
  C  C498  1  0.27396000  0.52740000  0.96049000  1.0
  C  C499  1  0.31272000  0.50844000  0.93301000  1.0
  C  C500  1  0.31630000  0.05646000  0.72424000  1.0
  C  C501  1  0.27883000  0.02996000  0.74581000  1.0
  C  C502  1  0.29789000  0.99946000  0.76529000  1.0
  C  C503  1  0.26041000  0.97263000  0.78642000  1.0
  C  C504  1  0.24287000  0.17665000  0.23141000  1.0
  C  C505  1  0.28086000  0.19912000  0.25679000  1.0
  C  C506  1  0.26236000  0.22087000  0.28592000  1.0
  C  C507  1  0.30049000  0.24206000  0.31226000  1.0
  C  C508  1  0.24590000  0.74447000  0.42897000  1.0
  C  C509  1  0.28525000  0.71994000  0.45111000  1.0
  C  C510  1  0.26832000  0.68903000  0.47098000  1.0
  C  C511  1  0.30724000  0.66301000  0.49177000  1.0
  O  O512  1  0.41874000  0.63412000  0.07025000  1.0
  O  O513  1  0.39636000  0.59086000  0.11843000  1.0
  O  O514  1  0.28279000  0.57868000  0.08419000  1.0
  O  O515  1  0.30536000  0.62052000  0.03495000  1.0
  O  O516  1  0.40548000  0.69944000  0.02936000  1.0
  O  O517  1  0.32205000  0.69343000  0.00951000  1.0
  O  O518  1  0.32137000  0.69648000  0.10179000  1.0
  O  O519  1  0.30129000  0.65443000  0.15117000  1.0
  O  O520  1  0.25853000  0.56885000  0.16144000  1.0
  O  O521  1  0.34243000  0.56971000  0.18132000  1.0
  O  O522  1  0.42142000  0.93515000  0.88702000  1.0
  O  O523  1  0.42620000  0.88659000  0.84146000  1.0
  O  O524  1  0.30620000  0.91363000  0.80366000  1.0
  O  O525  1  0.30266000  0.96286000  0.84835000  1.0
  O  O526  1  0.37639000  0.99278000  0.92359000  1.0
  O  O527  1  0.29481000  0.97338000  0.93800000  1.0
  O  O528  1  0.32233000  0.89560000  0.92472000  1.0
  O  O529  1  0.32721000  0.84681000  0.87956000  1.0
  O  O530  1  0.31263000  0.82198000  0.80459000  1.0
  O  O531  1  0.39196000  0.84180000  0.78512000  1.0
  O  O532  1  0.41328000  0.11157000  0.18720000  1.0
  O  O533  1  0.39652000  0.15731000  0.14008000  1.0
  O  O534  1  0.27994000  0.16623000  0.16779000  1.0
  O  O535  1  0.29612000  0.12077000  0.21510000  1.0
  O  O536  1  0.39812000  0.04458000  0.22421000  1.0
  O  O537  1  0.31148000  0.04570000  0.23656000  1.0
  O  O538  1  0.32519000  0.04881000  0.14492000  1.0
  O  O539  1  0.30660000  0.09416000  0.09836000  1.0
  O  O540  1  0.26349000  0.17996000  0.09042000  1.0
  O  O541  1  0.34877000  0.17949000  0.07374000  1.0
  O  O542  1  0.40737000  0.81810000  0.37639000  1.0
  O  O543  1  0.38410000  0.85159000  0.43160000  1.0
  O  O544  1  0.27307000  0.81120000  0.43379000  1.0
  O  O545  1  0.29684000  0.77689000  0.37932000  1.0
  O  O546  1  0.39518000  0.79899000  0.30193000  1.0
  O  O547  1  0.31416000  0.77395000  0.30235000  1.0
  O  O548  1  0.30589000  0.86356000  0.32667000  1.0
  O  O549  1  0.28497000  0.89833000  0.38133000  1.0
  O  O550  1  0.24490000  0.88043000  0.46701000  1.0
  O  O551  1  0.32751000  0.90243000  0.47162000  1.0
  O  O552  1  0.64447000  0.10194000  0.06322000  1.0
  O  O553  1  0.64924000  0.14593000  0.11324000  1.0
  O  O554  1  0.76572000  0.16776000  0.08970000  1.0
  O  O555  1  0.76093000  0.12422000  0.03936000  1.0
  O  O556  1  0.67307000  0.04003000  0.02371000  1.0
  O  O557  1  0.75925000  0.04904000  0.01325000  1.0
  O  O558  1  0.74215000  0.04685000  0.10489000  1.0
  O  O559  1  0.74561000  0.09031000  0.15513000  1.0
  O  O560  1  0.77432000  0.17747000  0.16984000  1.0
  O  O561  1  0.68718000  0.17288000  0.17910000  1.0
  O  O562  1  0.65295000  0.92972000  0.38374000  1.0
  O  O563  1  0.67344000  0.89254000  0.43712000  1.0
  O  O564  1  0.78376000  0.93428000  0.44437000  1.0
  O  O565  1  0.76208000  0.97215000  0.39182000  1.0
  O  O566  1  0.66782000  0.95168000  0.31043000  1.0
  O  O567  1  0.74631000  0.98026000  0.31474000  1.0
  O  O568  1  0.75944000  0.88912000  0.33410000  1.0
  O  O569  1  0.77328000  0.84965000  0.38669000  1.0
  O  O570  1  0.81354000  0.86144000  0.47174000  1.0
  O  O571  1  0.72946000  0.84297000  0.47782000  1.0
  O  O572  1  0.66179000  0.63470000  0.19484000  1.0
  O  O573  1  0.68223000  0.57777000  0.16325000  1.0
  O  O574  1  0.79516000  0.57114000  0.20836000  1.0
  O  O575  1  0.77768000  0.62699000  0.24226000  1.0
  O  O576  1  0.67885000  0.69393000  0.23944000  1.0
  O  O577  1  0.76031000  0.71471000  0.22679000  1.0
  O  O578  1  0.75755000  0.67840000  0.15379000  1.0
  O  O579  1  0.77848000  0.62342000  0.11951000  1.0
  O  O580  1  0.82492000  0.54504000  0.13017000  1.0
  O  O581  1  0.74035000  0.52702000  0.12705000  1.0
  O  O582  1  0.64314000  0.79862000  0.89353000  1.0
  O  O583  1  0.65726000  0.83504000  0.83860000  1.0
  O  O584  1  0.76911000  0.79813000  0.82750000  1.0
  O  O585  1  0.75479000  0.76082000  0.88175000  1.0
  O  O586  1  0.66405000  0.77665000  0.96537000  1.0
  O  O587  1  0.74597000  0.75375000  0.96018000  1.0
  O  O588  1  0.74781000  0.84494000  0.93875000  1.0
  O  O589  1  0.76105000  0.88207000  0.88433000  1.0
  O  O590  1  0.78884000  0.86847000  0.79457000  1.0
  O  O591  1  0.70600000  0.89015000  0.79806000  1.0
  O  O592  1  0.92338000  0.12270000  0.57411000  1.0
  O  O593  1  0.91029000  0.07797000  0.62273000  1.0
  O  O594  1  0.79280000  0.06625000  0.59759000  1.0
  O  O595  1  0.80560000  0.11059000  0.54863000  1.0
  O  O596  1  0.90563000  0.18904000  0.53718000  1.0
  O  O597  1  0.81973000  0.18465000  0.52323000  1.0
  O  O598  1  0.83276000  0.18452000  0.61592000  1.0
  O  O599  1  0.82045000  0.14033000  0.66475000  1.0
  O  O600  1  0.78096000  0.05395000  0.67663000  1.0
  O  O601  1  0.86743000  0.05569000  0.68956000  1.0
  O  O602  1  0.92197000  0.42382000  0.39162000  1.0
  O  O603  1  0.91031000  0.38864000  0.33561000  1.0
  O  O604  1  0.79671000  0.42318000  0.32563000  1.0
  O  O605  1  0.80861000  0.45881000  0.38128000  1.0
  O  O606  1  0.89917000  0.44045000  0.46520000  1.0
  O  O607  1  0.81783000  0.46415000  0.45890000  1.0
  O  O608  1  0.81822000  0.37337000  0.43506000  1.0
  O  O609  1  0.80811000  0.33740000  0.37959000  1.0
  O  O610  1  0.86408000  0.33304000  0.29383000  1.0
  O  O611  1  0.78077000  0.35379000  0.29010000  1.0
  O  O612  1  0.90023000  0.60552000  0.68942000  1.0
  O  O613  1  0.87754000  0.64967000  0.64208000  1.0
  O  O614  1  0.76453000  0.66162000  0.67759000  1.0
  O  O615  1  0.78741000  0.61893000  0.72598000  1.0
  O  O616  1  0.88737000  0.54158000  0.73138000  1.0
  O  O617  1  0.80225000  0.54361000  0.74813000  1.0
  O  O618  1  0.80437000  0.54400000  0.65696000  1.0
  O  O619  1  0.78324000  0.58692000  0.60858000  1.0
  O  O620  1  0.73841000  0.67175000  0.60037000  1.0
  O  O621  1  0.82249000  0.67337000  0.58090000  1.0
  O  O622  1  0.91242000  0.31292000  0.88743000  1.0
  O  O623  1  0.88956000  0.36011000  0.93175000  1.0
  O  O624  1  0.77693000  0.32346000  0.94366000  1.0
  O  O625  1  0.79988000  0.27544000  0.90057000  1.0
  O  O626  1  0.89969000  0.27178000  0.82252000  1.0
  O  O627  1  0.81489000  0.25423000  0.82496000  1.0
  O  O628  1  0.81572000  0.34519000  0.82627000  1.0
  O  O629  1  0.79390000  0.39303000  0.86955000  1.0
  O  O630  1  0.74922000  0.39996000  0.95424000  1.0
  O  O631  1  0.83255000  0.42099000  0.95582000  1.0
  O  O632  1  0.14725000  0.59935000  0.57093000  1.0
  O  O633  1  0.16349000  0.65940000  0.59750000  1.0
  O  O634  1  0.27485000  0.66795000  0.55713000  1.0
  O  O635  1  0.26285000  0.61044000  0.52469000  1.0
  O  O636  1  0.16898000  0.53916000  0.52965000  1.0
  O  O637  1  0.25241000  0.52261000  0.54176000  1.0
  O  O638  1  0.24636000  0.56096000  0.61432000  1.0
  O  O639  1  0.26706000  0.61761000  0.64594000  1.0
  O  O640  1  0.29765000  0.70484000  0.62585000  1.0
  O  O641  1  0.21379000  0.70565000  0.64566000  1.0
  O  O642  1  0.15470000  0.43539000  0.87475000  1.0
  O  O643  1  0.17753000  0.39934000  0.92845000  1.0
  O  O644  1  0.28725000  0.44133000  0.93394000  1.0
  O  O645  1  0.26403000  0.47803000  0.88092000  1.0
  O  O646  1  0.16726000  0.45966000  0.80211000  1.0
  O  O647  1  0.24870000  0.48399000  0.80330000  1.0
  O  O648  1  0.25758000  0.39364000  0.82389000  1.0
  O  O649  1  0.27890000  0.35681000  0.87714000  1.0
  O  O650  1  0.23553000  0.34830000  0.96755000  1.0
  O  O651  1  0.31782000  0.37093000  0.96339000  1.0
  O  O652  1  0.15249000  0.14029000  0.69764000  1.0
  O  O653  1  0.15422000  0.09711000  0.64685000  1.0
  O  O654  1  0.27188000  0.07518000  0.66518000  1.0
  O  O655  1  0.27019000  0.11733000  0.71676000  1.0
  O  O656  1  0.18391000  0.20105000  0.73761000  1.0
  O  O657  1  0.27073000  0.19177000  0.74466000  1.0
  O  O658  1  0.24724000  0.19635000  0.65379000  1.0
  O  O659  1  0.24811000  0.15397000  0.60258000  1.0
  O  O660  1  0.27404000  0.06604000  0.58562000  1.0
  O  O661  1  0.18684000  0.07325000  0.57819000  1.0
  O  O662  1  0.14044000  0.30617000  0.37541000  1.0
  O  O663  1  0.15372000  0.34256000  0.32039000  1.0
  O  O664  1  0.26711000  0.30743000  0.31200000  1.0
  O  O665  1  0.25323000  0.27013000  0.36632000  1.0
  O  O666  1  0.16038000  0.28982000  0.44973000  1.0
  O  O667  1  0.23920000  0.26206000  0.44337000  1.0
  O  O668  1  0.24578000  0.35391000  0.42162000  1.0
  O  O669  1  0.25268000  0.39256000  0.36776000  1.0
  O  O670  1  0.28695000  0.37867000  0.28014000  1.0
  O  O671  1  0.20241000  0.39715000  0.27954000  1.0
