# generated using pymatgen
data_Ni5H16(C5O3)8
_symmetry_space_group_name_H-M   'P 1'
_cell_length_a   15.84310000
_cell_length_b   17.25730000
_cell_length_c   20.55675000
_cell_angle_alpha   111.92900000
_cell_angle_beta   94.40200000
_cell_angle_gamma   94.59700000
_symmetry_Int_Tables_number   1
_chemical_formula_structural   Ni5H16(C5O3)8
_chemical_formula_sum   'Ni10 H32 C80 O48'
_cell_volume   5162.27298244
_cell_formula_units_Z   2
loop_
 _symmetry_equiv_pos_site_id
 _symmetry_equiv_pos_as_xyz
  1  'x, y, z'
loop_
 _atom_site_type_symbol
 _atom_site_label
 _atom_site_symmetry_multiplicity
 _atom_site_fract_x
 _atom_site_fract_y
 _atom_site_fract_z
 _atom_site_occupancy
  C  C0  1  0.97284250  0.97070000  0.70782000  1.0
  C  C1  1  0.83338000  0.76882250  0.12190000  1.0
  C  C2  1  0.78716750  0.95566500  0.00864000  1.0
  C  C3  1  0.02333500  0.78856000  0.82298500  1.0
  C  C4  1  0.97562000  0.99288000  0.03064000  1.0
  C  C5  1  0.82532000  0.74884000  0.79724000  1.0
  C  C6  1  0.78990750  0.00035750  0.79427250  1.0
  C  C7  1  0.01725250  0.73425250  0.02983500  1.0
  C  C8  1  0.47102000  0.46698250  0.20594250  1.0
  C  C9  1  0.33522500  0.27147000  0.62643500  1.0
  C  C10  1  0.28184750  0.44883000  0.50510750  1.0
  C  C11  1  0.51888250  0.28562500  0.32514250  1.0
  C  C12  1  0.47670250  0.48796500  0.52884250  1.0
  C  C13  1  0.32988500  0.24225500  0.29719000  1.0
  C  C14  1  0.28434750  0.50119750  0.29813000  1.0
  C  C15  1  0.51843500  0.23669000  0.53255000  1.0
  C  C16  1  0.63366250  0.61057750  0.67240000  1.0
  C  C17  1  0.67201500  0.66996000  0.65000000  1.0
  C  C18  1  0.72570750  0.73450750  0.69866000  1.0
  C  C19  1  0.74097500  0.73340250  0.76576000  1.0
  C  C20  1  0.68516750  0.68646500  0.79052500  1.0
  C  C21  1  0.63191000  0.62183750  0.74200500  1.0
  C  C22  1  0.59357750  0.53912500  0.62403750  1.0
  C  C23  1  0.53972750  0.50568750  0.58009000  1.0
  C  C24  1  0.65091750  0.12102500  0.66033500  1.0
  C  C25  1  0.71100500  0.16711750  0.71999500  1.0
  C  C26  1  0.75250000  0.12892500  0.76325500  1.0
  C  C27  1  0.73804750  0.04138250  0.74955250  1.0
  C  C28  1  0.67803750  0.99521000  0.68984500  1.0
  C  C29  1  0.63503000  0.03382000  0.64743500  1.0
  C  C30  1  0.60661250  0.16244750  0.61397750  1.0
  C  C31  1  0.56699250  0.19527000  0.57657000  1.0
  C  C32  1  0.15683000  0.12410500  0.66436500  1.0
  C  C33  1  0.08809500  0.15910000  0.69816500  1.0
  C  C34  1  0.02882250  0.10878500  0.71524000  1.0
  C  C35  1  0.03804000  0.02394750  0.69638000  1.0
  C  C36  1  0.10967750  0.99016000  0.66669583  1.0
  C  C37  1  0.16900250  0.04049250  0.64965500  1.0
  C  C38  1  0.21750000  0.17518000  0.64795500  1.0
  C  C39  1  0.27136500  0.21929000  0.63787000  1.0
  C  C40  1  0.15542000  0.61298000  0.65691500  1.0
  C  C41  1  0.11136000  0.67492000  0.64756000  1.0
  C  C42  1  0.06827000  0.72634000  0.70094000  1.0
  C  C43  1  0.06688000  0.72080000  0.76832000  1.0
  C  C44  1  0.11498000  0.66010000  0.77892750  1.0
  C  C45  1  0.15643750  0.60529500  0.72326500  1.0
  C  C46  1  0.19968000  0.56055750  0.59807750  1.0
  C  C47  1  0.23649750  0.51680250  0.54927250  1.0
  C  C48  1  0.15311000  0.61532750  0.16784250  1.0
  C  C49  1  0.14444250  0.70270500  0.19151500  1.0
  C  C50  1  0.10305750  0.74044000  0.14763500  1.0
  C  C51  1  0.06901750  0.69429250  0.07601500  1.0
  C  C52  1  0.07811000  0.60683500  0.05229750  1.0
  C  C53  1  0.11849750  0.56889250  0.09650250  1.0
  C  C54  1  0.19657750  0.57451000  0.21532250  1.0
  C  C55  1  0.23586000  0.54257000  0.25376500  1.0
  C  C56  1  0.65566000  0.62109500  0.16205750  1.0
  C  C57  1  0.58896250  0.65660250  0.19886250  1.0
  C  C58  1  0.52997750  0.60617000  0.21636250  1.0
  C  C59  1  0.53727250  0.52060750  0.19526250  1.0
  C  C60  1  0.60703250  0.48616500  0.16252000  1.0
  C  C61  1  0.66618250  0.53664500  0.14518000  1.0
  C  C62  1  0.71538250  0.67204500  0.14388000  1.0
  C  C63  1  0.76876000  0.71605250  0.13264000  1.0
  C  C64  1  0.63950000  0.11648000  0.17271250  1.0
  C  C65  1  0.69468750  0.15428000  0.14045250  1.0
  C  C66  1  0.74276000  0.10609750  0.08790000  1.0
  C  C67  1  0.72852000  0.01650000  0.05554000  1.0
  C  C68  1  0.66960750  0.98033750  0.08850750  1.0
  C  C69  1  0.62822000  0.02856000  0.14629500  1.0
  C  C70  1  0.59873500  0.16796750  0.23443000  1.0
  C  C71  1  0.56285250  0.21552500  0.28193500  1.0
  C  C72  1  0.14306000  0.10887750  0.16422250  1.0
  C  C73  1  0.21828500  0.07272250  0.16108000  1.0
  C  C74  1  0.29112000  0.12437000  0.19305750  1.0
  C  C75  1  0.28347250  0.20866250  0.23110000  1.0
  C  C76  1  0.21152250  0.24647250  0.22163250  1.0
  C  C77  1  0.13979500  0.19473750  0.18509500  1.0
  C  C78  1  0.06992000  0.05691500  0.14160250  1.0
  C  C79  1  0.02478500  0.01787500  0.09194000  1.0
  H  H80  1  0.66667833  0.66264000  0.59504000  1.0
  H  H81  1  0.76180250  0.77554250  0.68026000  1.0
  H  H82  1  0.69616000  0.68654500  0.84316000  1.0
  H  H83  1  0.59728000  0.57591000  0.75730750  1.0
  H  H84  1  0.72684250  0.23373750  0.73336750  1.0
  H  H85  1  0.79862000  0.16857000  0.80691000  1.0
  H  H86  1  0.66316750  0.92846750  0.67617250  1.0
  H  H87  1  0.58888250  0.99437250  0.60383250  1.0
  H  H88  1  0.08000500  0.22455000  0.71072750  1.0
  H  H89  1  0.97555250  0.13526250  0.74204000  1.0
  H  H90  1  0.11895750  0.92527000  0.65600250  1.0
  H  H91  1  0.22357250  0.01439750  0.62470000  1.0
  H  H92  1  0.11098000  0.68490500  0.59862250  1.0
  H  H93  1  0.03864000  0.77360000  0.68844000  1.0
  H  H94  1  0.12214000  0.65537000  0.82988250  1.0
  H  H95  1  0.19044000  0.55801000  0.73268500  1.0
  H  H96  1  0.16947500  0.74291250  0.24497500  1.0
  H  H97  1  0.09757000  0.80697250  0.17048000  1.0
  H  H98  1  0.05154250  0.56620250  0.99932000  1.0
  H  H99  1  0.12185250  0.50190500  0.07440500  1.0
  H  H100  1  0.58195500  0.72254250  0.21317500  1.0
  H  H101  1  0.47800250  0.63312250  0.24486000  1.0
  H  H102  1  0.61489250  0.42056250  0.14950000  1.0
  H  H103  1  0.71914500  0.50988250  0.11803000  1.0
  H  H104  1  0.70624750  0.22219750  0.15996000  1.0
  H  H105  1  0.79697750  0.14309250  0.08390000  1.0
  H  H106  1  0.66040750  0.91296000  0.07372750  1.0
  H  H107  1  0.58912000  0.99664750  0.17162000  1.0
  H  H108  1  0.21948250  0.00528250  0.14072250  1.0
  H  H109  1  0.34718000  0.09621000  0.20250750  1.0
  H  H110  1  0.20547500  0.31168000  0.25235250  1.0
  H  H111  1  0.08079000  0.22077250  0.18027250  1.0
  Ni  Ni112  1  0.89296500  0.84952000  0.03694000  1.0
  Ni  Ni113  1  0.92440500  0.70340000  0.89252000  1.0
  Ni  Ni114  1  0.91658000  0.88922000  0.79124000  1.0
  Ni  Ni115  1  0.88478000  0.03478000  0.93059750  1.0
  Ni  Ni116  1  0.90344750  0.86977750  0.91388000  1.0
  Ni  Ni117  1  0.39112250  0.34999750  0.53982250  1.0
  Ni  Ni118  1  0.42343750  0.20416500  0.39762500  1.0
  Ni  Ni119  1  0.41072500  0.38613750  0.28986000  1.0
  Ni  Ni120  1  0.37808000  0.53173000  0.43397250  1.0
  Ni  Ni121  1  0.39955000  0.36715250  0.41432000  1.0
  O  O122  1  0.98124000  0.96064000  0.76750000  1.0
  O  O123  1  0.82023750  0.92871000  0.76500250  1.0
  O  O124  1  0.80368750  0.03712500  0.86285000  1.0
  O  O125  1  0.90975500  0.93152000  0.65820750  1.0
  O  O126  1  0.95360750  0.91369250  0.99964000  1.0
  O  O127  1  0.87034000  0.78714000  0.94608000  1.0
  O  O128  1  0.91151250  0.92156500  0.12456000  1.0
  O  O129  1  0.96195500  0.04821000  0.00274000  1.0
  O  O130  1  0.97352000  0.62390750  0.83436750  1.0
  O  O131  1  0.86000000  0.62689000  0.90844000  1.0
  O  O132  1  0.79738500  0.89430000  0.02926000  1.0
  O  O133  1  0.82322500  0.94992000  0.94928250  1.0
  O  O134  1  0.82798500  0.77742000  0.06124250  1.0
  O  O135  1  0.98850500  0.80679500  0.05940250  1.0
  O  O136  1  0.00468250  0.69825000  0.96064750  1.0
  O  O137  1  0.89418250  0.80966000  0.17308000  1.0
  O  O138  1  0.85347500  0.82652000  0.82780750  1.0
  O  O139  1  0.93674000  0.95090250  0.88096000  1.0
  O  O140  1  0.90226000  0.81528000  0.70476000  1.0
  O  O141  1  0.84839750  0.69242750  0.82130000  1.0
  O  O142  1  0.83630500  0.11671500  0.98260000  1.0
  O  O143  1  0.95004000  0.10700000  0.91024000  1.0
  O  O144  1  0.98378000  0.79093000  0.87904000  1.0
  O  O145  1  0.01436000  0.85122250  0.80476500  1.0
  O  O146  1  0.47698250  0.45721000  0.26600000  1.0
  O  O147  1  0.31728250  0.43152250  0.26698750  1.0
  O  O148  1  0.29418250  0.53412500  0.36735500  1.0
  O  O149  1  0.40848000  0.42850250  0.15561500  1.0
  O  O150  1  0.45018000  0.41072250  0.49930000  1.0
  O  O151  1  0.36773750  0.28622000  0.44951750  1.0
  O  O152  1  0.41223250  0.42462250  0.62654000  1.0
  O  O153  1  0.45855250  0.54453750  0.50380500  1.0
  O  O154  1  0.47399000  0.12501750  0.33946750  1.0
  O  O155  1  0.36326000  0.12770500  0.41671750  1.0
  O  O156  1  0.29498250  0.39463500  0.53292000  1.0
  O  O157  1  0.32034000  0.44378500  0.44844000  1.0
  O  O158  1  0.32690250  0.28039250  0.56622250  1.0
  O  O159  1  0.48602750  0.30676250  0.56316250  1.0
  O  O160  1  0.50822250  0.20327750  0.46361750  1.0
  O  O161  1  0.39798500  0.31125750  0.67607250  1.0
  O  O162  1  0.34888500  0.32227000  0.32746750  1.0
  O  O163  1  0.43264250  0.44862000  0.38062000  1.0
  O  O164  1  0.39124000  0.31433250  0.20222000  1.0
  O  O165  1  0.34368250  0.19044250  0.32868250  1.0
  O  O166  1  0.32767000  0.61058000  0.49277250  1.0
  O  O167  1  0.43948000  0.60862250  0.41620500  1.0
  O  O168  1  0.47959500  0.29145750  0.38146750  1.0
  O  O169  1  0.50608250  0.33923000  0.29636500  1.0
