# generated using pymatgen
data_CuH10(C7N)2
_symmetry_space_group_name_H-M   'P 1'
_cell_length_a   30.92180000
_cell_length_b   30.92180000
_cell_length_c   39.48780000
_cell_angle_alpha   90.00000000
_cell_angle_beta   90.00000000
_cell_angle_gamma   90.00000000
_symmetry_Int_Tables_number   1
_chemical_formula_structural   CuH10(C7N)2
_chemical_formula_sum   'Cu24 H240 C336 N48'
_cell_volume   37756.56462785
_cell_formula_units_Z   24
loop_
 _symmetry_equiv_pos_site_id
 _symmetry_equiv_pos_as_xyz
  1  'x, y, z'
loop_
 _atom_site_type_symbol
 _atom_site_label
 _atom_site_symmetry_multiplicity
 _atom_site_fract_x
 _atom_site_fract_y
 _atom_site_fract_z
 _atom_site_occupancy
  Cu  Cu0  1  0.39618000  0.00752000  0.29227000  1.0
  Cu  Cu1  1  0.50426000  0.34538000  0.22925000  1.0
  Cu  Cu2  1  0.07074000  0.58422000  0.26339000  1.0
  Cu  Cu3  1  0.07025000  0.09640000  0.25391000  1.0
  Cu  Cu4  1  0.54454000  0.92626000  0.81861000  1.0
  Cu  Cu5  1  0.74856000  0.54860000  0.68480000  1.0
  Cu  Cu6  1  0.06457000  0.54889000  0.74493000  1.0
  Cu  Cu7  1  0.01882000  0.04579000  0.81846000  1.0
  Cu  Cu8  1  0.64551000  0.20261000  0.06024000  1.0
  Cu  Cu9  1  0.62971000  0.63375000  0.00055000  1.0
  Cu  Cu10  1  0.08690000  0.27864000  0.01031000  1.0
  Cu  Cu11  1  0.74060000  0.18790000  0.04889000  1.0
  Cu  Cu12  1  0.58682000  0.20213000  0.53495000  1.0
  Cu  Cu13  1  0.78475000  0.65338000  0.52420000  1.0
  Cu  Cu14  1  0.07927000  0.29617000  0.55284000  1.0
  Cu  Cu15  1  0.69009000  0.06717000  0.51080000  1.0
  Cu  Cu16  1  0.71756000  0.12861000  0.40136000  1.0
  Cu  Cu17  1  0.68353000  0.69358000  0.33667000  1.0
  Cu  Cu18  1  0.89738000  0.22296000  0.30050000  1.0
  Cu  Cu19  1  0.73542000  0.83605000  0.23525000  1.0
  Cu  Cu20  1  0.37947000  0.27480000  0.79072000  1.0
  Cu  Cu21  1  0.55162000  0.30823000  0.77725000  1.0
  Cu  Cu22  1  0.42946000  0.36073000  0.82547000  1.0
  Cu  Cu23  1  0.70443000  0.31263000  0.72989000  1.0
  H  H24  1  0.53434000  0.13365000  0.19315000  1.0
  H  H25  1  0.56077000  0.12453000  0.29959000  1.0
  H  H26  1  0.65659000  0.17785000  0.23250000  1.0
  H  H27  1  0.57746000  0.51608000  0.13913000  1.0
  H  H28  1  0.58917000  0.54437000  0.24509000  1.0
  H  H29  1  0.63202000  0.63746000  0.17137000  1.0
  H  H30  1  0.98607000  0.30288000  0.15356000  1.0
  H  H31  1  0.04966000  0.42575000  0.14020000  1.0
  H  H32  1  0.98125000  0.39843000  0.23244000  1.0
  H  H33  1  0.89231000  0.98783000  0.21332000  1.0
  H  H34  1  0.78409000  0.01499000  0.14850000  1.0
  H  H35  1  0.89277000  0.10179000  0.15081000  1.0
  H  H36  1  0.72437000  0.24666000  0.40129000  1.0
  H  H37  1  0.68644000  0.28107000  0.30013000  1.0
  H  H38  1  0.59103000  0.27490000  0.37893000  1.0
  H  H39  1  0.91353000  0.63333000  0.38086000  1.0
  H  H40  1  0.80224000  0.71507000  0.36812000  1.0
  H  H41  1  0.89282000  0.70023000  0.28657000  1.0
  H  H42  1  0.92585000  0.13219000  0.36698000  1.0
  H  H43  1  0.04044000  0.17798000  0.41637000  1.0
  H  H44  1  0.91560000  0.19781000  0.46266000  1.0
  H  H45  1  0.64547000  0.88094000  0.42205000  1.0
  H  H46  1  0.54470000  0.86043000  0.34870000  1.0
  H  H47  1  0.54725000  0.97757000  0.40705000  1.0
  H  H48  1  0.49231000  0.20675000  0.93264000  1.0
  H  H49  1  0.54686000  0.07979000  0.94720000  1.0
  H  H50  1  0.46064000  0.10373000  0.86404000  1.0
  H  H51  1  0.69787000  0.45928000  0.79417000  1.0
  H  H52  1  0.63670000  0.45559000  0.89212000  1.0
  H  H53  1  0.71802000  0.56303000  0.86384000  1.0
  H  H54  1  0.11052000  0.40413000  0.87218000  1.0
  H  H55  1  0.21819000  0.42412000  0.80517000  1.0
  H  H56  1  0.23494000  0.35049000  0.89659000  1.0
  H  H57  1  0.86057000  0.13968000  0.91044000  1.0
  H  H58  1  0.84895000  0.18161000  0.80702000  1.0
  H  H59  1  0.75982000  0.22843000  0.88221000  1.0
  H  H60  1  0.57224000  0.43064000  0.71684000  1.0
  H  H61  1  0.62942000  0.37978000  0.62648000  1.0
  H  H62  1  0.51099000  0.32499000  0.66388000  1.0
  H  H63  1  0.77929000  0.47889000  0.63268000  1.0
  H  H64  1  0.87262000  0.44848000  0.71023000  1.0
  H  H65  1  0.89807000  0.55042000  0.63922000  1.0
  H  H66  1  0.20786000  0.25168000  0.68597000  1.0
  H  H67  1  0.19226000  0.16729000  0.77155000  1.0
  H  H68  1  0.09347000  0.17304000  0.69499000  1.0
  H  H69  1  0.61340000  0.02349000  0.66770000  1.0
  H  H70  1  0.63591000  0.16090000  0.66007000  1.0
  H  H71  1  0.58119000  0.10623000  0.75074000  1.0
  H  H72  1  0.44813000  0.01387000  0.22947000  1.0
  H  H73  1  0.50847000  0.06049000  0.21129000  1.0
  H  H74  1  0.48316000  0.14314000  0.29741000  1.0
  H  H75  1  0.42380000  0.09428000  0.31388000  1.0
  H  H76  1  0.41239000  0.99801000  0.36649000  1.0
  H  H77  1  0.47026000  0.96466000  0.40076000  1.0
  H  H78  1  0.52604000  0.91411000  0.30835000  1.0
  H  H79  1  0.46649000  0.94750000  0.27653000  1.0
  H  H80  1  0.57928000  0.39711000  0.25310000  1.0
  H  H81  1  0.61024000  0.46812000  0.23971000  1.0
  H  H82  1  0.50976000  0.48617000  0.16486000  1.0
  H  H83  1  0.48076000  0.41422000  0.17996000  1.0
  H  H84  1  0.57251000  0.27797000  0.22960000  1.0
  H  H85  1  0.62551000  0.25161000  0.27135000  1.0
  H  H86  1  0.56742000  0.33611000  0.34597000  1.0
  H  H87  1  0.51515000  0.35971000  0.30269000  1.0
  H  H88  1  0.98573000  0.54340000  0.24617000  1.0
  H  H89  1  0.96304000  0.47716000  0.21654000  1.0
  H  H90  1  0.09683000  0.45230000  0.19163000  1.0
  H  H91  1  0.11690000  0.51892000  0.22249000  1.0
  H  H92  1  0.03154000  0.67082000  0.26451000  1.0
  H  H93  1  0.96860000  0.70486000  0.29170000  1.0
  H  H94  1  0.94009000  0.58256000  0.34018000  1.0
  H  H95  1  0.00491000  0.55185000  0.31291000  1.0
  H  H96  1  0.08166000  0.17303000  0.29946000  1.0
  H  H97  1  0.04812000  0.19667000  0.35322000  1.0
  H  H98  1  0.98043000  0.07445000  0.35764000  1.0
  H  H99  1  0.01516000  0.05371000  0.30388000  1.0
  H  H100  1  0.99451000  0.14495000  0.22965000  1.0
  H  H101  1  0.92494000  0.12660000  0.20282000  1.0
  H  H102  1  0.96726000  0.99340000  0.19683000  1.0
  H  H103  1  0.03545000  0.01478000  0.22461000  1.0
  H  H104  1  0.49921000  0.99573000  0.78394000  1.0
  H  H105  1  0.51870000  0.05159000  0.74221000  1.0
  H  H106  1  0.64134000  0.98737000  0.72740000  1.0
  H  H107  1  0.61935000  0.93287000  0.77003000  1.0
  H  H108  1  0.46305000  0.96293000  0.84599000  1.0
  H  H109  1  0.44520000  0.02788000  0.87947000  1.0
  H  H110  1  0.58190000  0.04688000  0.89732000  1.0
  H  H111  1  0.59654000  0.98141000  0.86376000  1.0
  H  H112  1  0.69211000  0.51769000  0.62758000  1.0
  H  H113  1  0.63438000  0.46312000  0.62156000  1.0
  H  H114  1  0.65306000  0.42809000  0.72648000  1.0
  H  H115  1  0.71051000  0.48236000  0.73016000  1.0
  H  H116  1  0.69813000  0.59743000  0.73471000  1.0
  H  H117  1  0.68040000  0.58070000  0.79397000  1.0
  H  H118  1  0.78960000  0.49379000  0.79680000  1.0
  H  H119  1  0.80640000  0.51433000  0.73789000  1.0
  H  H120  1  0.11791000  0.47110000  0.73167000  1.0
  H  H121  1  0.15748000  0.41861000  0.76705000  1.0
  H  H122  1  0.10436000  0.48070000  0.85601000  1.0
  H  H123  1  0.06544000  0.53124000  0.81855000  1.0
  H  H124  1  0.99018000  0.59716000  0.72066000  1.0
  H  H125  1  0.92054000  0.58042000  0.69347000  1.0
  H  H126  1  0.95178000  0.44436000  0.70044000  1.0
  H  H127  1  0.02079000  0.46424000  0.72800000  1.0
  H  H128  1  0.93341000  0.06253000  0.78715000  1.0
  H  H129  1  0.86931000  0.10619000  0.80173000  1.0
  H  H130  1  0.93526000  0.14831000  0.89258000  1.0
  H  H131  1  0.99754000  0.10308000  0.87618000  1.0
  H  H132  1  0.07676000  0.11857000  0.83573000  1.0
  H  H133  1  0.12483000  0.16752000  0.80390000  1.0
  H  H134  1  0.09226000  0.09785000  0.71236000  1.0
  H  H135  1  0.04438000  0.05093000  0.74625000  1.0
  H  H136  1  0.61460000  0.24207000  0.99715000  1.0
  H  H137  1  0.56693000  0.22082000  0.94996000  1.0
  H  H138  1  0.53484000  0.10426000  0.00499000  1.0
  H  H139  1  0.58353000  0.12767000  0.05052000  1.0
  H  H140  1  0.62544000  0.12061000  0.09764000  1.0
  H  H141  1  0.60583000  0.10196000  0.15639000  1.0
  H  H142  1  0.61740000  0.23683000  0.18313000  1.0
  H  H143  1  0.63468000  0.25312000  0.12321000  1.0
  H  H144  1  0.58053000  0.56869000  0.96030000  1.0
  H  H145  1  0.59815000  0.52042000  0.91250000  1.0
  H  H146  1  0.73289000  0.55447000  0.92476000  1.0
  H  H147  1  0.71217000  0.60238000  0.97194000  1.0
  H  H148  1  0.68427000  0.63843000  0.06215000  1.0
  H  H149  1  0.67552000  0.61829000  0.12222000  1.0
  H  H150  1  0.54964000  0.56577000  0.09771000  1.0
  H  H151  1  0.56168000  0.58632000  0.03816000  1.0
  H  H152  1  0.00166000  0.28907000  0.04103000  1.0
  H  H153  1  0.97294000  0.32048000  0.09376000  1.0
  H  H154  1  0.10016000  0.37186000  0.11497000  1.0
  H  H155  1  0.12600000  0.33950000  0.06145000  1.0
  H  H156  1  0.15375000  0.25846000  0.96159000  1.0
  H  H157  1  0.18707000  0.29337000  0.91219000  1.0
  H  H158  1  0.11111000  0.40785000  0.93308000  1.0
  H  H159  1  0.07857000  0.36964000  0.98181000  1.0
  H  H160  1  0.77211000  0.11814000  0.00260000  1.0
  H  H161  1  0.79855000  0.11543000  0.94368000  1.0
  H  H162  1  0.78278000  0.25423000  0.93772000  1.0
  H  H163  1  0.75625000  0.25370000  0.99660000  1.0
  H  H164  1  0.83168000  0.15504000  0.05396000  1.0
  H  H165  1  0.87030000  0.10506000  0.09217000  1.0
  H  H166  1  0.75046000  0.08491000  0.14652000  1.0
  H  H167  1  0.71455000  0.13443000  0.10668000  1.0
  H  H168  1  0.51470000  0.25852000  0.55837000  1.0
  H  H169  1  0.50673000  0.31653000  0.60104000  1.0
  H  H170  1  0.64206000  0.30101000  0.62594000  1.0
  H  H171  1  0.64701000  0.24381000  0.58266000  1.0
  H  H172  1  0.65799000  0.17306000  0.49028000  1.0
  H  H173  1  0.68655000  0.19494000  0.43470000  1.0
  H  H174  1  0.59716000  0.30265000  0.43503000  1.0
  H  H175  1  0.57019000  0.27784000  0.49045000  1.0
  H  H176  1  0.86481000  0.59867000  0.53522000  1.0
  H  H177  1  0.88642000  0.54483000  0.57816000  1.0
  H  H178  1  0.75860000  0.55427000  0.62170000  1.0
  H  H179  1  0.73943000  0.60683000  0.57744000  1.0
  H  H180  1  0.74812000  0.64108000  0.45653000  1.0
  H  H181  1  0.77402000  0.64969000  0.39790000  1.0
  H  H182  1  0.90288000  0.67115000  0.43691000  1.0
  H  H183  1  0.87403000  0.66218000  0.49482000  1.0
  H  H184  1  0.16405000  0.26082000  0.57468000  1.0
  H  H185  1  0.19343000  0.22950000  0.62737000  1.0
  H  H186  1  0.06576000  0.23875000  0.67159000  1.0
  H  H187  1  0.03922000  0.26910000  0.61778000  1.0
  H  H188  1  0.99398000  0.30326000  0.52027000  1.0
  H  H189  1  0.95414000  0.26340000  0.47619000  1.0
  H  H190  1  0.05639000  0.16790000  0.47569000  1.0
  H  H191  1  0.09435000  0.21050000  0.51938000  1.0
  H  H192  1  0.71953000  0.00109000  0.46270000  1.0
  H  H193  1  0.68519000  0.94795000  0.42488000  1.0
  H  H194  1  0.56103000  0.98354000  0.46702000  1.0
  H  H195  1  0.59827000  0.03662000  0.50349000  1.0
  H  H196  1  0.63402000  0.13099000  0.54564000  1.0
  H  H197  1  0.60902000  0.14276000  0.60422000  1.0
  H  H198  1  0.67725000  0.02656000  0.63386000  1.0
  H  H199  1  0.69988000  0.01706000  0.57450000  1.0
  H  H200  1  0.78655000  0.16089000  0.35355000  1.0
  H  H201  1  0.86437000  0.17450000  0.35812000  1.0
  H  H202  1  0.85695000  0.14528000  0.46503000  1.0
  H  H203  1  0.77875000  0.13209000  0.45798000  1.0
  H  H204  1  0.73752000  0.11485000  0.32634000  1.0
  H  H205  1  0.69582000  0.12517000  0.27367000  1.0
  H  H206  1  0.59367000  0.18322000  0.33290000  1.0
  H  H207  1  0.63700000  0.17083000  0.38407000  1.0
  H  H208  1  0.59224000  0.72216000  0.34843000  1.0
  H  H209  1  0.55733000  0.78894000  0.36850000  1.0
  H  H210  1  0.68371000  0.84842000  0.37527000  1.0
  H  H211  1  0.71580000  0.77981000  0.35603000  1.0
  H  H212  1  0.71372000  0.68107000  0.26590000  1.0
  H  H213  1  0.68728000  0.64133000  0.21597000  1.0
  H  H214  1  0.57023000  0.61176000  0.27130000  1.0
  H  H215  1  0.59972000  0.65133000  0.32020000  1.0
  H  H216  1  0.96314000  0.21379000  0.24753000  1.0
  H  H217  1  0.99746000  0.26157000  0.20545000  1.0
  H  H218  1  0.91096000  0.36396000  0.23694000  1.0
  H  H219  1  0.87908000  0.31389000  0.27869000  1.0
  H  H220  1  0.86033000  0.27272000  0.35795000  1.0
  H  H221  1  0.78664000  0.28805000  0.37891000  1.0
  H  H222  1  0.73548000  0.22056000  0.29170000  1.0
  H  H223  1  0.81013000  0.20691000  0.27277000  1.0
  H  H224  1  0.75281000  0.87260000  0.16769000  1.0
  H  H225  1  0.79196000  0.93594000  0.14524000  1.0
  H  H226  1  0.82891000  0.96878000  0.24771000  1.0
  H  H227  1  0.78920000  0.90447000  0.26781000  1.0
  H  H228  1  0.71528000  0.76667000  0.28338000  1.0
  H  H229  1  0.75681000  0.71606000  0.31895000  1.0
  H  H230  1  0.87461000  0.77568000  0.28286000  1.0
  H  H231  1  0.83053000  0.82403000  0.24729000  1.0
  H  H232  1  0.29826000  0.31630000  0.77084000  1.0
  H  H233  1  0.22880000  0.29327000  0.74559000  1.0
  H  H234  1  0.27490000  0.16145000  0.74656000  1.0
  H  H235  1  0.34408000  0.18740000  0.77046000  1.0
  H  H236  1  0.35350000  0.19440000  0.83051000  1.0
  H  H237  1  0.39025000  0.14781000  0.87223000  1.0
  H  H238  1  0.49898000  0.23555000  0.87073000  1.0
  H  H239  1  0.46046000  0.27966000  0.82843000  1.0
  H  H240  1  0.56802000  0.28363000  0.70571000  1.0
  H  H241  1  0.58749000  0.21614000  0.67678000  1.0
  H  H242  1  0.62058000  0.16161000  0.77445000  1.0
  H  H243  1  0.59709000  0.22943000  0.80113000  1.0
  H  H244  1  0.64646000  0.32988000  0.77435000  1.0
  H  H245  1  0.69281000  0.38480000  0.80117000  1.0
  H  H246  1  0.58055000  0.43184000  0.85544000  1.0
  H  H247  1  0.53767000  0.37412000  0.82885000  1.0
  H  H248  1  0.36632000  0.43111000  0.80874000  1.0
  H  H249  1  0.28880000  0.44298000  0.81956000  1.0
  H  H250  1  0.28116000  0.31305000  0.86005000  1.0
  H  H251  1  0.35912000  0.30543000  0.85029000  1.0
  H  H252  1  0.45053000  0.30080000  0.76899000  1.0
  H  H253  1  0.49417000  0.30564000  0.71763000  1.0
  H  H254  1  0.50305000  0.44412000  0.73298000  1.0
  H  H255  1  0.46024000  0.43554000  0.78496000  1.0
  H  H256  1  0.67787000  0.26126000  0.78928000  1.0
  H  H257  1  0.71435000  0.21907000  0.83359000  1.0
  H  H258  1  0.83720000  0.25483000  0.78921000  1.0
  H  H259  1  0.79767000  0.29525000  0.74522000  1.0
  H  H260  1  0.72311000  0.34662000  0.66133000  1.0
  H  H261  1  0.76975000  0.40358000  0.63753000  1.0
  H  H262  1  0.80832000  0.43701000  0.73967000  1.0
  H  H263  1  0.76118000  0.37922000  0.76089000  1.0
  C  C264  1  0.59663000  0.15766000  0.20911000  1.0
  C  C265  1  0.55570000  0.13928000  0.21449000  1.0
  C  C266  1  0.54224000  0.12819000  0.24721000  1.0
  C  C267  1  0.57027000  0.13525000  0.27451000  1.0
  C  C268  1  0.61160000  0.15289000  0.26961000  1.0
  C  C269  1  0.62463000  0.16446000  0.23671000  1.0
  C  C270  1  0.60516000  0.57835000  0.15103000  1.0
  C  C271  1  0.58630000  0.53837000  0.15916000  1.0
  C  C272  1  0.58047000  0.52600000  0.19299000  1.0
  C  C273  1  0.59331000  0.55416000  0.21893000  1.0
  C  C274  1  0.61204000  0.59442000  0.21147000  1.0
  C  C275  1  0.61806000  0.60624000  0.17738000  1.0
  C  C276  1  0.98010000  0.34749000  0.19520000  1.0
  C  C277  1  0.99404000  0.33490000  0.16282000  1.0
  C  C278  1  0.01906000  0.36292000  0.14266000  1.0
  C  C279  1  0.03030000  0.40389000  0.15539000  1.0
  C  C280  1  0.01585000  0.41708000  0.18749000  1.0
  C  C281  1  0.99076000  0.38883000  0.20709000  1.0
  C  C282  1  0.89775000  0.04591000  0.18328000  1.0
  C  C283  1  0.87688000  0.00819000  0.19453000  1.0
  C  C284  1  0.83595000  0.99679000  0.18206000  1.0
  C  C285  1  0.81583000  0.02354000  0.15804000  1.0
  C  C286  1  0.83599000  0.06159000  0.14669000  1.0
  C  C287  1  0.87708000  0.07240000  0.15931000  1.0
  C  C288  1  0.65653000  0.26122000  0.39462000  1.0
  C  C289  1  0.69953000  0.25643000  0.38351000  1.0
  C  C290  1  0.71033000  0.26280000  0.34928000  1.0
  C  C291  1  0.67795000  0.27492000  0.32632000  1.0
  C  C292  1  0.63496000  0.27986000  0.33688000  1.0
  C  C293  1  0.62454000  0.27297000  0.37103000  1.0
  C  C294  1  0.90838000  0.66520000  0.33226000  1.0
  C  C295  1  0.89440000  0.65483000  0.36520000  1.0
  C  C296  1  0.85567000  0.67207000  0.37802000  1.0
  C  C297  1  0.83133000  0.70053000  0.35786000  1.0
  C  C298  1  0.84495000  0.71149000  0.32507000  1.0
  C  C299  1  0.88321000  0.69330000  0.31240000  1.0
  C  C300  1  0.91510000  0.16494000  0.41443000  1.0
  C  C301  1  0.94090000  0.14839000  0.38829000  1.0
  C  C302  1  0.98592000  0.15297000  0.38885000  1.0
  C  C303  1  0.00562000  0.17381000  0.41631000  1.0
  C  C304  1  0.98062000  0.18967000  0.44340000  1.0
  C  C305  1  0.93523000  0.18520000  0.44220000  1.0
  C  C306  1  0.59828000  0.93216000  0.41807000  1.0
  C  C307  1  0.61649000  0.89197000  0.40927000  1.0
  C  C308  1  0.59734000  0.86580000  0.38425000  1.0
  C  C309  1  0.55937000  0.88009000  0.36829000  1.0
  C  C310  1  0.54084000  0.92012000  0.37658000  1.0
  C  C311  1  0.56036000  0.94582000  0.40161000  1.0
  C  C312  1  0.47249000  0.15813000  0.89668000  1.0
  C  C313  1  0.49520000  0.17313000  0.92520000  1.0
  C  C314  1  0.52150000  0.14482000  0.94410000  1.0
  C  C315  1  0.52545000  0.10150000  0.93364000  1.0
  C  C316  1  0.50343000  0.08638000  0.90493000  1.0
  C  C317  1  0.47644000  0.11472000  0.88701000  1.0
  C  C318  1  0.71272000  0.51195000  0.82738000  1.0
  C  C319  1  0.69357000  0.47226000  0.81947000  1.0
  C  C320  1  0.66553000  0.45171000  0.84228000  1.0
  C  C321  1  0.65814000  0.47106000  0.87412000  1.0
  C  C322  1  0.67773000  0.51084000  0.88254000  1.0
  C  C323  1  0.70476000  0.53122000  0.85873000  1.0
  C  C324  1  0.17054000  0.37455000  0.88780000  1.0
  C  C325  1  0.14445000  0.39961000  0.86627000  1.0
  C  C326  1  0.16150000  0.41776000  0.83652000  1.0
  C  C327  1  0.20504000  0.41032000  0.82818000  1.0
  C  C328  1  0.23184000  0.38577000  0.84948000  1.0
  C  C329  1  0.21429000  0.36832000  0.87938000  1.0
  C  C330  1  0.80842000  0.18411000  0.90032000  1.0
  C  C331  1  0.84424000  0.15874000  0.89128000  1.0
  C  C332  1  0.85915000  0.15776000  0.85770000  1.0
  C  C333  1  0.83770000  0.18244000  0.83301000  1.0
  C  C334  1  0.80180000  0.20804000  0.84156000  1.0
  C  C335  1  0.78747000  0.20875000  0.87534000  1.0
  C  C336  1  0.53657000  0.37821000  0.69341000  1.0
  C  C337  1  0.57061000  0.40838000  0.69570000  1.0
  C  C338  1  0.60345000  0.40969000  0.67120000  1.0
  C  C339  1  0.60333000  0.37954000  0.64484000  1.0
  C  C340  1  0.57061000  0.34833000  0.64253000  1.0
  C  C341  1  0.53649000  0.34883000  0.66609000  1.0
  C  C342  1  0.83759000  0.51701000  0.63218000  1.0
  C  C343  1  0.81027000  0.48437000  0.64473000  1.0
  C  C344  1  0.82249000  0.45934000  0.67298000  1.0
  C  C345  1  0.86264000  0.46745000  0.68853000  1.0
  C  C346  1  0.88978000  0.50050000  0.67669000  1.0
  C  C347  1  0.87720000  0.52478000  0.64836000  1.0
  C  C348  1  0.14892000  0.21388000  0.68635000  1.0
  C  C349  1  0.18898000  0.22765000  0.69944000  1.0
  C  C350  1  0.20473000  0.21071000  0.73007000  1.0
  C  C351  1  0.18009000  0.18019000  0.74785000  1.0
  C  C352  1  0.13968000  0.16678000  0.73554000  1.0
  C  C353  1  0.12457000  0.18345000  0.70465000  1.0
  C  C354  1  0.59676000  0.06104000  0.71149000  1.0
  C  C355  1  0.61288000  0.05561000  0.67868000  1.0
  C  C356  1  0.62634000  0.09160000  0.65957000  1.0
  C  C357  1  0.62458000  0.13317000  0.67431000  1.0
  C  C358  1  0.60895000  0.13889000  0.70753000  1.0
  C  C359  1  0.59465000  0.10250000  0.72557000  1.0
  C  C360  1  0.45508000  0.04330000  0.24326000  1.0
  C  C361  1  0.48930000  0.06974000  0.23308000  1.0
  C  C362  1  0.50079000  0.10547000  0.25309000  1.0
  C  C363  1  0.47538000  0.11568000  0.28148000  1.0
  C  C364  1  0.44147000  0.08838000  0.29069000  1.0
  C  C365  1  0.43685000  0.97840000  0.35432000  1.0
  C  C366  1  0.46999000  0.95995000  0.37358000  1.0
  C  C367  1  0.50302000  0.93657000  0.35733000  1.0
  C  C368  1  0.50088000  0.93110000  0.32203000  1.0
  C  C369  1  0.46713000  0.94995000  0.30386000  1.0
  C  C370  1  0.56414000  0.41691000  0.23394000  1.0
  C  C371  1  0.58159000  0.45732000  0.22637000  1.0
  C  C372  1  0.56226000  0.48301000  0.20130000  1.0
  C  C373  1  0.52568000  0.46715000  0.18424000  1.0
  C  C374  1  0.50911000  0.42653000  0.19280000  1.0
  C  C375  1  0.57133000  0.28970000  0.25539000  1.0
  C  C376  1  0.60156000  0.27518000  0.27904000  1.0
  C  C377  1  0.60102000  0.29204000  0.31212000  1.0
  C  C378  1  0.56872000  0.32195000  0.32090000  1.0
  C  C379  1  0.53902000  0.33540000  0.29647000  1.0
  C  C380  1  0.00979000  0.52333000  0.23407000  1.0
  C  C381  1  0.99697000  0.48587000  0.21713000  1.0
  C  C382  1  0.02827000  0.45947000  0.20179000  1.0
  C  C383  1  0.07181000  0.47213000  0.20293000  1.0
  C  C384  1  0.08325000  0.50966000  0.22052000  1.0
  C  C385  1  0.01135000  0.65204000  0.28138000  1.0
  C  C386  1  0.97544000  0.67110000  0.29669000  1.0
  C  C387  1  0.94868000  0.64633000  0.31799000  1.0
  C  C388  1  0.95994000  0.60300000  0.32423000  1.0
  C  C389  1  0.99650000  0.58538000  0.30863000  1.0
  C  C390  1  0.06021000  0.15143000  0.31298000  1.0
  C  C391  1  0.04129000  0.16467000  0.34343000  1.0
  C  C392  1  0.01151000  0.13735000  0.35966000  1.0
  C  C393  1  0.00308000  0.09643000  0.34574000  1.0
  C  C394  1  0.02282000  0.08451000  0.31542000  1.0
  C  C395  1  0.98822000  0.11205000  0.22181000  1.0
  C  C396  1  0.94891000  0.10150000  0.20653000  1.0
  C  C397  1  0.94037000  0.05834000  0.19758000  1.0
  C  C398  1  0.97235000  0.02695000  0.20365000  1.0
  C  C399  1  0.01119000  0.03898000  0.21907000  1.0
  C  C400  1  0.52971000  0.99356000  0.77065000  1.0
  C  C401  1  0.54091000  0.02523000  0.74717000  1.0
  C  C402  1  0.58167000  0.02380000  0.73166000  1.0
  C  C403  1  0.60948000  0.98908000  0.73873000  1.0
  C  C404  1  0.59709000  0.95822000  0.76276000  1.0
  C  C405  1  0.48856000  0.98069000  0.85857000  1.0
  C  C406  1  0.47861000  0.01773000  0.87724000  1.0
  C  C407  1  0.51222000  0.04273000  0.89105000  1.0
  C  C408  1  0.55502000  0.02816000  0.88758000  1.0
  C  C409  1  0.56347000  0.99100000  0.86862000  1.0
  C  C410  1  0.68359000  0.49759000  0.64895000  1.0
  C  C411  1  0.65085000  0.46670000  0.64561000  1.0
  C  C412  1  0.63886000  0.44163000  0.67375000  1.0
  C  C413  1  0.66091000  0.44738000  0.70440000  1.0
  C  C414  1  0.69370000  0.47817000  0.70647000  1.0
  C  C415  1  0.71999000  0.57764000  0.74945000  1.0
  C  C416  1  0.70983000  0.56783000  0.78299000  1.0
  C  C417  1  0.73379000  0.53595000  0.79986000  1.0
  C  C418  1  0.77103000  0.51905000  0.78454000  1.0
  C  C419  1  0.78063000  0.53066000  0.75122000  1.0
  C  C420  1  0.11467000  0.47221000  0.75893000  1.0
  C  C421  1  0.13729000  0.44279000  0.77907000  1.0
  C  C422  1  0.13436000  0.44561000  0.81453000  1.0
  C  C423  1  0.10715000  0.47711000  0.82880000  1.0
  C  C424  1  0.08511000  0.50586000  0.80768000  1.0
  C  C425  1  0.98116000  0.56383000  0.71626000  1.0
  C  C426  1  0.94191000  0.55421000  0.70064000  1.0
  C  C427  1  0.93070000  0.51092000  0.69446000  1.0
  C  C428  1  0.95918000  0.47811000  0.70494000  1.0
  C  C429  1  0.99831000  0.48927000  0.72047000  1.0
  C  C430  1  0.93319000  0.08141000  0.81021000  1.0
  C  C431  1  0.89708000  0.10641000  0.81845000  1.0
  C  C432  1  0.89708000  0.13089000  0.84843000  1.0
  C  C433  1  0.93372000  0.12949000  0.86947000  1.0
  C  C434  1  0.96911000  0.10406000  0.86022000  1.0
  C  C435  1  0.08080000  0.11430000  0.80872000  1.0
  C  C436  1  0.10815000  0.14179000  0.79063000  1.0
  C  C437  1  0.11250000  0.13657000  0.75545000  1.0
  C  C438  1  0.08947000  0.10319000  0.73938000  1.0
  C  C439  1  0.06252000  0.07643000  0.75849000  1.0
  C  C440  1  0.59632000  0.21230000  0.99876000  1.0
  C  C441  1  0.56914000  0.20021000  0.97208000  1.0
  C  C442  1  0.54698000  0.16059000  0.97355000  1.0
  C  C443  1  0.55169000  0.13483000  0.00265000  1.0
  C  C444  1  0.57916000  0.14820000  0.02873000  1.0
  C  C445  1  0.62246000  0.14596000  0.11632000  1.0
  C  C446  1  0.61204000  0.13538000  0.14970000  1.0
  C  C447  1  0.61011000  0.16810000  0.17424000  1.0
  C  C448  1  0.61878000  0.21088000  0.16473000  1.0
  C  C449  1  0.62820000  0.22015000  0.13084000  1.0
  C  C450  1  0.61391000  0.56429000  0.95280000  1.0
  C  C451  1  0.62403000  0.53687000  0.92575000  1.0
  C  C452  1  0.66708000  0.53366000  0.91458000  1.0
  C  C453  1  0.69928000  0.55634000  0.93237000  1.0
  C  C454  1  0.68772000  0.58328000  0.95928000  1.0
  C  C455  1  0.65522000  0.62196000  0.07032000  1.0
  C  C456  1  0.64991000  0.61098000  0.10440000  1.0
  C  C457  1  0.61168000  0.59044000  0.11497000  1.0
  C  C458  1  0.57982000  0.58107000  0.09063000  1.0
  C  C459  1  0.58650000  0.59262000  0.05684000  1.0
  C  C460  1  0.02258000  0.30822000  0.05707000  1.0
  C  C461  1  0.00655000  0.32567000  0.08715000  1.0
  C  C462  1  0.03439000  0.34846000  0.10886000  1.0
  C  C463  1  0.07755000  0.35483000  0.09881000  1.0
  C  C464  1  0.09230000  0.33659000  0.06847000  1.0
  C  C465  1  0.14515000  0.29140000  0.95527000  1.0
  C  C466  1  0.16408000  0.31140000  0.92731000  1.0
  C  C467  1  0.15194000  0.35371000  0.91850000  1.0
  C  C468  1  0.12112000  0.37508000  0.93874000  1.0
  C  C469  1  0.10286000  0.35368000  0.96656000  1.0
  C  C470  1  0.77485000  0.14768000  0.98807000  1.0
  C  C471  1  0.78994000  0.14630000  0.95474000  1.0
  C  C472  1  0.79284000  0.18475000  0.93586000  1.0
  C  C473  1  0.78060000  0.22384000  0.95125000  1.0
  C  C474  1  0.76583000  0.22370000  0.98466000  1.0
  C  C475  1  0.81432000  0.13911000  0.07421000  1.0
  C  C476  1  0.83615000  0.11100000  0.09605000  1.0
  C  C477  1  0.81348000  0.09073000  0.12253000  1.0
  C  C478  1  0.76906000  0.09921000  0.12615000  1.0
  C  C479  1  0.74859000  0.12744000  0.10373000  1.0
  C  C480  1  0.54229000  0.26838000  0.57333000  1.0
  C  C481  1  0.53783000  0.30103000  0.59759000  1.0
  C  C482  1  0.57391000  0.31369000  0.61674000  1.0
  C  C483  1  0.61365000  0.29272000  0.61124000  1.0
  C  C484  1  0.61658000  0.26022000  0.58687000  1.0
  C  C485  1  0.64544000  0.20174000  0.47803000  1.0
  C  C486  1  0.66173000  0.21443000  0.44656000  1.0
  C  C487  1  0.64391000  0.25054000  0.43000000  1.0
  C  C488  1  0.61134000  0.27422000  0.44658000  1.0
  C  C489  1  0.59610000  0.26041000  0.47808000  1.0
  C  C490  1  0.84157000  0.58784000  0.55384000  1.0
  C  C491  1  0.85379000  0.55756000  0.57837000  1.0
  C  C492  1  0.82406000  0.54502000  0.60351000  1.0
  C  C493  1  0.78211000  0.56223000  0.60245000  1.0
  C  C494  1  0.77124000  0.59224000  0.57747000  1.0
  C  C495  1  0.78214000  0.64658000  0.45180000  1.0
  C  C496  1  0.79685000  0.65189000  0.41864000  1.0
  C  C497  1  0.84062000  0.66139000  0.41270000  1.0
  C  C498  1  0.86901000  0.66345000  0.44044000  1.0
  C  C499  1  0.85278000  0.65823000  0.47328000  1.0
  C  C500  1  0.14282000  0.25513000  0.59600000  1.0
  C  C501  1  0.15946000  0.23788000  0.62604000  1.0
  C  C502  1  0.13198000  0.23162000  0.65395000  1.0
  C  C503  1  0.08800000  0.24246000  0.65060000  1.0
  C  C504  1  0.07278000  0.25965000  0.62012000  1.0
  C  C505  1  0.00683000  0.27311000  0.51068000  1.0
  C  C506  1  0.98429000  0.25035000  0.48570000  1.0
  C  C507  1  0.00206000  0.21229000  0.47213000  1.0
  C  C508  1  0.04175000  0.19736000  0.48511000  1.0
  C  C509  1  0.06320000  0.22118000  0.51011000  1.0
  C  C510  1  0.68489000  0.99637000  0.46372000  1.0
  C  C511  1  0.66527000  0.96612000  0.44239000  1.0
  C  C512  1  0.62009000  0.96128000  0.44278000  1.0
  C  C513  1  0.59588000  0.98649000  0.46563000  1.0
  C  C514  1  0.61689000  0.01642000  0.48653000  1.0
  C  C515  1  0.64281000  0.10818000  0.56523000  1.0
  C  C516  1  0.62913000  0.11501000  0.59856000  1.0
  C  C517  1  0.64118000  0.08560000  0.62403000  1.0
  C  C518  1  0.66666667  0.04975000  0.61502000  1.0
  C  C519  1  0.67964000  0.04421000  0.58139000  1.0
  C  C520  1  0.80214000  0.15787000  0.37784000  1.0
  C  C521  1  0.84644000  0.16555000  0.38058000  1.0
  C  C522  1  0.86727000  0.16083000  0.41203000  1.0
  C  C523  1  0.84223000  0.14972000  0.44038000  1.0
  C  C524  1  0.79792000  0.14206000  0.43643000  1.0
  C  C525  1  0.70671000  0.13133000  0.32727000  1.0
  C  C526  1  0.68298000  0.13723000  0.29738000  1.0
  C  C527  1  0.64136000  0.15530000  0.29902000  1.0
  C  C528  1  0.62566000  0.16923000  0.33054000  1.0
  C  C529  1  0.65032000  0.16264000  0.35961000  1.0
  C  C530  1  0.61182000  0.75015000  0.35422000  1.0
  C  C531  1  0.59215000  0.78814000  0.36563000  1.0
  C  C532  1  0.61770000  0.82441000  0.37354000  1.0
  C  C533  1  0.66279000  0.82117000  0.36990000  1.0
  C  C534  1  0.68108000  0.78249000  0.35854000  1.0
  C  C535  1  0.68191000  0.66659000  0.26644000  1.0
  C  C536  1  0.66679000  0.64401000  0.23812000  1.0
  C  C537  1  0.62653000  0.62301000  0.23956000  1.0
  C  C538  1  0.60165000  0.62700000  0.26922000  1.0
  C  C539  1  0.61806000  0.64984000  0.29691000  1.0
  C  C540  1  0.95170000  0.24660000  0.24451000  1.0
  C  C541  1  0.97089000  0.27372000  0.22058000  1.0
  C  C542  1  0.95697000  0.31682000  0.21775000  1.0
  C  C543  1  0.92289000  0.33108000  0.23853000  1.0
  C  C544  1  0.90461000  0.30278000  0.26212000  1.0
  C  C545  1  0.83256000  0.26213000  0.34350000  1.0
  C  C546  1  0.79083000  0.27033000  0.35548000  1.0
  C  C547  1  0.75502000  0.25544000  0.33698000  1.0
  C  C548  1  0.76219000  0.23301000  0.30652000  1.0
  C  C549  1  0.80442000  0.22523000  0.29568000  1.0
  C  C550  1  0.76991000  0.89386000  0.18485000  1.0
  C  C551  1  0.79189000  0.92987000  0.17226000  1.0
  C  C552  1  0.81363000  0.95756000  0.19473000  1.0
  C  C553  1  0.81300000  0.94794000  0.22952000  1.0
  C  C554  1  0.79040000  0.91167000  0.24101000  1.0
  C  C555  1  0.75024000  0.76826000  0.28361000  1.0
  C  C556  1  0.77385000  0.73980000  0.30389000  1.0
  C  C557  1  0.81921000  0.74176000  0.30392000  1.0
  C  C558  1  0.83972000  0.77269000  0.28333000  1.0
  C  C559  1  0.81482000  0.80041000  0.26331000  1.0
  C  C560  1  0.29264000  0.28243000  0.76550000  1.0
  C  C561  1  0.25352000  0.26941000  0.75098000  1.0
  C  C562  1  0.24649000  0.22547000  0.74416000  1.0
  C  C563  1  0.27925000  0.19558000  0.75174000  1.0
  C  C564  1  0.31827000  0.21015000  0.76556000  1.0
  C  C565  1  0.38541000  0.20300000  0.83933000  1.0
  C  C566  1  0.40614000  0.17685000  0.86324000  1.0
  C  C567  1  0.44763000  0.18806000  0.87481000  1.0
  C  C568  1  0.46685000  0.22609000  0.86267000  1.0
  C  C569  1  0.44523000  0.25091000  0.83845000  1.0
  C  C570  1  0.58029000  0.25688000  0.72032000  1.0
  C  C571  1  0.59167000  0.21843000  0.70396000  1.0
  C  C572  1  0.60481000  0.18257000  0.72325000  1.0
  C  C573  1  0.60931000  0.18781000  0.75854000  1.0
  C  C574  1  0.59662000  0.22649000  0.77383000  1.0
  C  C575  1  0.63293000  0.35161000  0.79295000  1.0
  C  C576  1  0.65894000  0.38317000  0.80802000  1.0
  C  C577  1  0.64053000  0.41324000  0.83067000  1.0
  C  C578  1  0.59647000  0.40903000  0.83878000  1.0
  C  C579  1  0.57189000  0.37657000  0.82349000  1.0
  C  C580  1  0.34701000  0.40538000  0.81951000  1.0
  C  C581  1  0.30293000  0.41190000  0.82564000  1.0
  C  C582  1  0.27826000  0.37892000  0.84090000  1.0
  C  C583  1  0.29882000  0.33968000  0.84884000  1.0
  C  C584  1  0.34299000  0.33486000  0.84273000  1.0
  C  C585  1  0.46130000  0.33215000  0.76033000  1.0
  C  C586  1  0.48633000  0.33515000  0.73097000  1.0
  C  C587  1  0.50361000  0.37535000  0.72108000  1.0
  C  C588  1  0.49190000  0.41218000  0.74000000  1.0
  C  C589  1  0.46694000  0.40762000  0.76931000  1.0
  C  C590  1  0.71272000  0.25963000  0.78962000  1.0
  C  C591  1  0.73360000  0.23593000  0.81486000  1.0
  C  C592  1  0.77897000  0.23356000  0.81516000  1.0
  C  C593  1  0.80219000  0.25539000  0.78975000  1.0
  C  C594  1  0.77990000  0.27862000  0.76490000  1.0
  C  C595  1  0.74198000  0.36687000  0.67811000  1.0
  C  C596  1  0.76828000  0.39941000  0.66473000  1.0
  C  C597  1  0.79324000  0.42523000  0.68660000  1.0
  C  C598  1  0.79025000  0.41778000  0.72170000  1.0
  C  C599  1  0.76337000  0.38507000  0.73394000  1.0
  N  N600  1  0.43289000  0.05244000  0.27210000  1.0
  N  N601  1  0.43638000  0.97344000  0.32013000  1.0
  N  N602  1  0.52842000  0.40245000  0.21732000  1.0
  N  N603  1  0.54138000  0.31972000  0.26437000  1.0
  N  N604  1  0.05240000  0.53392000  0.23609000  1.0
  N  N605  1  0.02082000  0.60983000  0.28724000  1.0
  N  N606  1  0.05013000  0.11225000  0.29949000  1.0
  N  N607  1  0.01815000  0.08085000  0.22796000  1.0
  N  N608  1  0.55816000  0.96163000  0.77858000  1.0
  N  N609  1  0.53047000  0.96885000  0.85395000  1.0
  N  N610  1  0.70416000  0.50287000  0.67911000  1.0
  N  N611  1  0.75327000  0.55698000  0.73389000  1.0
  N  N612  1  0.08978000  0.50326000  0.77353000  1.0
  N  N613  1  0.00849000  0.53158000  0.72556000  1.0
  N  N614  1  0.96812000  0.08071000  0.83108000  1.0
  N  N615  1  0.05864000  0.08257000  0.79243000  1.0
  N  N616  1  0.60126000  0.18610000  0.02617000  1.0
  N  N617  1  0.62945000  0.18788000  0.10740000  1.0
  N  N618  1  0.64555000  0.58747000  0.96839000  1.0
  N  N619  1  0.62366000  0.61276000  0.04745000  1.0
  N  N620  1  0.06490000  0.31326000  0.04867000  1.0
  N  N621  1  0.11501000  0.31251000  0.97406000  1.0
  N  N622  1  0.76324000  0.18603000  0.00225000  1.0
  N  N623  1  0.77135000  0.14673000  0.07849000  1.0
  N  N624  1  0.58124000  0.24890000  0.56848000  1.0
  N  N625  1  0.61275000  0.22433000  0.49276000  1.0
  N  N626  1  0.80103000  0.60490000  0.55418000  1.0
  N  N627  1  0.80993000  0.65055000  0.47827000  1.0
  N  N628  1  0.10025000  0.26580000  0.59370000  1.0
  N  N629  1  0.04574000  0.25856000  0.52198000  1.0
  N  N630  1  0.66056000  0.02105000  0.48491000  1.0
  N  N631  1  0.66756000  0.07325000  0.55736000  1.0
  N  N632  1  0.77900000  0.14558000  0.40543000  1.0
  N  N633  1  0.68987000  0.14374000  0.35763000  1.0
  N  N634  1  0.65551000  0.74812000  0.35076000  1.0
  N  N635  1  0.65775000  0.66857000  0.29520000  1.0
  N  N636  1  0.91965000  0.26163000  0.26489000  1.0
  N  N637  1  0.83845000  0.23953000  0.31431000  1.0
  N  N638  1  0.76941000  0.88565000  0.21866000  1.0
  N  N639  1  0.77094000  0.79770000  0.26388000  1.0
  N  N640  1  0.32395000  0.25286000  0.77259000  1.0
  N  N641  1  0.40566000  0.23865000  0.82682000  1.0
  N  N642  1  0.58144000  0.25962000  0.75468000  1.0
  N  N643  1  0.59023000  0.34916000  0.80073000  1.0
  N  N644  1  0.36608000  0.36744000  0.82837000  1.0
  N  N645  1  0.45321000  0.36789000  0.77932000  1.0
  N  N646  1  0.73596000  0.28034000  0.76534000  1.0
  N  N647  1  0.74039000  0.36012000  0.71209000  1.0
