# generated using pymatgen
data_SiH21Ir2C44(Br3N)2
_symmetry_space_group_name_H-M   'P 1'
_cell_length_a   35.12190000
_cell_length_b   38.24750000
_cell_length_c   46.07030000
_cell_angle_alpha   90.00000000
_cell_angle_beta   106.39200000
_cell_angle_gamma   90.00000000
_symmetry_Int_Tables_number   1
_chemical_formula_structural   SiH21Ir2C44(Br3N)2
_chemical_formula_sum   'Si8 H168 Ir16 C352 Br48 N16'
_cell_volume   59371.86742530
_cell_formula_units_Z   8
loop_
 _symmetry_equiv_pos_site_id
 _symmetry_equiv_pos_as_xyz
  1  'x, y, z'
loop_
 _atom_site_type_symbol
 _atom_site_label
 _atom_site_symmetry_multiplicity
 _atom_site_fract_x
 _atom_site_fract_y
 _atom_site_fract_z
 _atom_site_occupancy
  Si  Si0  1  0.69270000  0.18989000  0.11527000  1.0
  Si  Si1  1  0.31424000  0.19293000  0.88500000  1.0
  Si  Si2  1  0.29703000  0.80979000  0.94577000  1.0
  Si  Si3  1  0.71597000  0.81837000  0.07641000  1.0
  Si  Si4  1  0.19024000  0.66910000  0.62988000  1.0
  Si  Si5  1  0.81276000  0.67388000  0.39116000  1.0
  Si  Si6  1  0.79973000  0.29076000  0.43944000  1.0
  Si  Si7  1  0.22493000  0.29751000  0.56303000  1.0
  H  H8  1  0.95032000  0.07766000  0.97229000  1.0
  H  H9  1  0.03739000  0.06173000  0.00849000  1.0
  H  H10  1  0.98346000  0.01394000  0.01387000  1.0
  H  H11  1  0.98444000  0.02888000  0.94886000  1.0
  H  H12  1  0.54650000  0.53369000  0.54143000  1.0
  H  H13  1  0.46886000  0.54109000  0.49017000  1.0
  H  H14  1  0.52820000  0.49237000  0.48102000  1.0
  H  H15  1  0.49269000  0.47720000  0.53331000  1.0
  H  H16  1  0.57397000  0.26622000  0.07938000  1.0
  H  H17  1  0.63631000  0.24839000  0.11600000  1.0
  H  H18  1  0.78900000  0.19652000  0.05383000  1.0
  H  H19  1  0.64937000  0.18720000  0.20939000  1.0
  H  H20  1  0.73775000  0.12276000  0.11805000  1.0
  H  H21  1  0.74856000  0.25463000  0.21181000  1.0
  H  H22  1  0.72451000  0.20700000  0.06262000  1.0
  H  H23  1  0.59656000  0.09067000  0.10239000  1.0
  H  H24  1  0.59764000  0.19617000  0.01325000  1.0
  H  H25  1  0.65948000  0.17784000  0.04976000  1.0
  H  H26  1  0.74229000  0.24098000  0.15867000  1.0
  H  H27  1  0.71867000  0.06182000  0.11416000  1.0
  H  H28  1  0.83735000  0.16653000  0.14736000  1.0
  H  H29  1  0.77296000  0.17666000  0.15605000  1.0
  H  H30  1  0.61530000  0.15269000  0.10509000  1.0
  H  H31  1  0.64321000  0.17312000  0.15664000  1.0
  H  H32  1  0.38992000  0.26058000  0.97627000  1.0
  H  H33  1  0.32876000  0.24349000  0.93750000  1.0
  H  H34  1  0.22972000  0.17811000  0.95429000  1.0
  H  H35  1  0.25292000  0.18825000  0.77306000  1.0
  H  H36  1  0.34719000  0.14954000  0.93941000  1.0
  H  H37  1  0.35672000  0.25342000  0.80296000  1.0
  H  H38  1  0.29306000  0.18388000  0.94274000  1.0
  H  H39  1  0.30911000  0.06743000  0.85271000  1.0
  H  H40  1  0.45934000  0.20243000  0.92914000  1.0
  H  H41  1  0.39881000  0.18524000  0.89075000  1.0
  H  H42  1  0.36101000  0.23970000  0.85565000  1.0
  H  H43  1  0.35260000  0.08661000  0.94856000  1.0
  H  H44  1  0.16808000  0.20975000  0.86331000  1.0
  H  H45  1  0.23142000  0.21720000  0.85210000  1.0
  H  H46  1  0.30403000  0.13004000  0.84319000  1.0
  H  H47  1  0.25702000  0.17413000  0.82562000  1.0
  H  H48  1  0.16574000  0.80060000  0.96447000  1.0
  H  H49  1  0.21996000  0.77707000  0.94701000  1.0
  H  H50  1  0.39745000  0.75474000  0.03330000  1.0
  H  H51  1  0.30194000  0.72735000  0.86343000  1.0
  H  H52  1  0.35403000  0.86412000  0.97734000  1.0
  H  H53  1  0.19456000  0.78785000  0.84805000  1.0
  H  H54  1  0.32956000  0.77337000  0.00575000  1.0
  H  H55  1  0.27738000  0.91602000  0.87967000  1.0
  H  H56  1  0.24377000  0.88103000  0.01409000  1.0
  H  H57  1  0.29794000  0.85688000  0.99739000  1.0
  H  H58  1  0.21836000  0.81227000  0.89917000  1.0
  H  H59  1  0.36457000  0.92534000  0.96642000  1.0
  H  H60  1  0.43897000  0.78824000  0.95812000  1.0
  H  H61  1  0.37207000  0.80641000  0.93079000  1.0
  H  H62  1  0.26614000  0.85527000  0.89038000  1.0
  H  H63  1  0.32573000  0.75111000  0.91440000  1.0
  H  H64  1  0.74586000  0.84239000  0.97937000  1.0
  H  H65  1  0.71133000  0.80975000  0.01009000  1.0
  H  H66  1  0.58477000  0.80374000  0.00247000  1.0
  H  H67  1  0.77198000  0.82977000  0.18761000  1.0
  H  H68  1  0.65645000  0.84051000  0.10728000  1.0
  H  H69  1  0.76652000  0.72487000  0.15231000  1.0
  H  H70  1  0.65280000  0.82497000  0.01888000  1.0
  H  H71  1  0.70044000  0.94778000  0.06554000  1.0
  H  H72  1  0.83127000  0.87871000  0.06053000  1.0
  H  H73  1  0.79678000  0.84662000  0.09130000  1.0
  H  H74  1  0.74515000  0.74801000  0.10052000  1.0
  H  H75  1  0.62838000  0.89742000  0.11516000  1.0
  H  H76  1  0.60659000  0.73879000  0.08182000  1.0
  H  H77  1  0.67468000  0.75926000  0.09825000  1.0
  H  H78  1  0.72671000  0.89178000  0.05630000  1.0
  H  H79  1  0.74917000  0.85280000  0.13621000  1.0
  H  H80  1  0.11493000  0.71669000  0.52934000  1.0
  H  H81  1  0.17629000  0.70302000  0.56899000  1.0
  H  H82  1  0.26365000  0.61336000  0.56532000  1.0
  H  H83  1  0.26829000  0.68257000  0.73791000  1.0
  H  H84  1  0.21104000  0.61394000  0.67893000  1.0
  H  H85  1  0.16209000  0.74503000  0.70962000  1.0
  H  H86  1  0.20379000  0.63228000  0.57724000  1.0
  H  H87  1  0.13614000  0.55672000  0.58340000  1.0
  H  H88  1  0.04624000  0.69172000  0.59075000  1.0
  H  H89  1  0.10702000  0.67670000  0.62989000  1.0
  H  H90  1  0.15048000  0.72377000  0.65787000  1.0
  H  H91  1  0.20765000  0.55041000  0.67617000  1.0
  H  H92  1  0.33415000  0.67979000  0.63585000  1.0
  H  H93  1  0.27380000  0.69866000  0.64822000  1.0
  H  H94  1  0.13867000  0.62019000  0.58600000  1.0
  H  H95  1  0.25658000  0.66058000  0.68629000  1.0
  H  H96  1  0.89290000  0.72366000  0.48958000  1.0
  H  H97  1  0.83000000  0.71170000  0.45109000  1.0
  H  H98  1  0.74314000  0.64055000  0.46692000  1.0
  H  H99  1  0.74447000  0.68248000  0.28037000  1.0
  H  H100  1  0.86089000  0.62740000  0.43874000  1.0
  H  H101  1  0.83713000  0.75801000  0.31558000  1.0
  H  H102  1  0.80116000  0.65016000  0.44915000  1.0
  H  H103  1  0.80164000  0.55192000  0.35004000  1.0
  H  H104  1  0.95750000  0.69233000  0.42700000  1.0
  H  H105  1  0.89505000  0.67901000  0.38898000  1.0
  H  H106  1  0.84745000  0.73420000  0.36630000  1.0
  H  H107  1  0.86885000  0.56428000  0.44338000  1.0
  H  H108  1  0.66838000  0.68499000  0.38431000  1.0
  H  H109  1  0.72690000  0.69552000  0.36668000  1.0
  H  H110  1  0.79442000  0.61506000  0.34475000  1.0
  H  H111  1  0.75289000  0.65989000  0.33144000  1.0
  H  H112  1  0.75566000  0.30447000  0.53280000  1.0
  H  H113  1  0.79490000  0.27606000  0.50301000  1.0
  H  H114  1  0.92511000  0.28298000  0.52237000  1.0
  H  H115  1  0.80089000  0.26198000  0.33523000  1.0
  H  H116  1  0.86503000  0.34290000  0.46742000  1.0
  H  H117  1  0.69213000  0.23626000  0.35628000  1.0
  H  H118  1  0.85575000  0.29982000  0.50142000  1.0
  H  H119  1  0.77441000  0.39928000  0.37734000  1.0
  H  H120  1  0.68331000  0.35410000  0.45201000  1.0
  H  H121  1  0.72235000  0.32634000  0.42236000  1.0
  H  H122  1  0.72162000  0.25567000  0.40889000  1.0
  H  H123  1  0.87585000  0.40351000  0.45597000  1.0
  H  H124  1  0.91654000  0.21533000  0.44602000  1.0
  H  H125  1  0.84693000  0.23116000  0.42528000  1.0
  H  H126  1  0.76278000  0.33870000  0.38865000  1.0
  H  H127  1  0.83009000  0.28162000  0.38709000  1.0
  H  H128  1  0.23724000  0.34396000  0.46556000  1.0
  H  H129  1  0.20022000  0.31961000  0.49839000  1.0
  H  H130  1  0.11355000  0.23915000  0.48558000  1.0
  H  H131  1  0.23791000  0.21119000  0.64521000  1.0
  H  H132  1  0.20804000  0.36848000  0.53397000  1.0
  H  H133  1  0.32419000  0.29440000  0.66324000  1.0
  H  H134  1  0.18302000  0.25781000  0.50621000  1.0
  H  H135  1  0.20297000  0.38147000  0.63990000  1.0
  H  H136  1  0.34727000  0.31594000  0.53116000  1.0
  H  H137  1  0.31032000  0.29165000  0.56398000  1.0
  H  H138  1  0.29877000  0.31450000  0.61087000  1.0
  H  H139  1  0.19451000  0.42549000  0.55219000  1.0
  H  H140  1  0.08851000  0.27299000  0.56758000  1.0
  H  H141  1  0.15717000  0.29133000  0.58819000  1.0
  H  H142  1  0.21563000  0.32389000  0.62166000  1.0
  H  H143  1  0.21307000  0.23047000  0.59268000  1.0
  H  H144  1  0.01928000  0.06044000  0.92605000  1.0
  H  H145  1  0.04255000  0.12789000  0.00536000  1.0
  H  H146  1  0.13860000  0.14702000  0.87686000  1.0
  H  H147  1  0.16513000  0.21193000  0.95710000  1.0
  H  H148  1  0.96109000  0.04118000  0.04771000  1.0
  H  H149  1  0.96783000  0.13655000  0.99777000  1.0
  H  H150  1  0.85628000  0.11770000  0.11588000  1.0
  H  H151  1  0.86115000  0.21222000  0.06522000  1.0
  H  H152  1  0.89662000  0.04474000  0.99700000  1.0
  H  H153  1  0.95631000  0.96394000  0.96014000  1.0
  H  H154  1  0.78057000  0.93376000  0.01898000  1.0
  H  H155  1  0.83905000  0.85391000  0.98072000  1.0
  H  H156  1  0.06124000  0.00774000  0.02704000  1.0
  H  H157  1  0.00947000  0.97932000  0.93208000  1.0
  H  H158  1  0.18974000  0.88373000  0.03765000  1.0
  H  H159  1  0.13262000  0.85546000  0.94411000  1.0
  H  H160  1  0.51855000  0.54132000  0.45335000  1.0
  H  H161  1  0.57838000  0.58708000  0.54121000  1.0
  H  H162  1  0.63351000  0.62692000  0.39549000  1.0
  H  H163  1  0.69050000  0.67254000  0.48314000  1.0
  H  H164  1  0.49092000  0.59798000  0.53142000  1.0
  H  H165  1  0.43903000  0.49820000  0.54563000  1.0
  H  H166  1  0.36872000  0.67507000  0.58762000  1.0
  H  H167  1  0.31908000  0.57460000  0.60080000  1.0
  H  H168  1  0.40996000  0.50765000  0.48828000  1.0
  H  H169  1  0.49408000  0.42578000  0.48369000  1.0
  H  H170  1  0.28049000  0.40044000  0.47993000  1.0
  H  H171  1  0.36448000  0.31740000  0.48097000  1.0
  H  H172  1  0.60858000  0.50924000  0.51476000  1.0
  H  H173  1  0.53146000  0.42723000  0.53148000  1.0
  H  H174  1  0.73248000  0.40030000  0.50590000  1.0
  H  H175  1  0.65538000  0.31735000  0.51894000  1.0
  Ir  Ir176  1  0.06503000  0.10310000  0.88432000  1.0
  Ir  Ir177  1  0.09748000  0.18842000  0.98675000  1.0
  Ir  Ir178  1  0.92083000  0.07059000  0.09847000  1.0
  Ir  Ir179  1  0.92823000  0.19274000  0.03391000  1.0
  Ir  Ir180  1  0.81746000  0.00293000  0.00056000  1.0
  Ir  Ir181  1  0.89412000  0.89999000  0.95179000  1.0
  Ir  Ir182  1  0.13108000  0.94475000  0.04766000  1.0
  Ir  Ir183  1  0.05979000  0.90778000  0.92704000  1.0
  Ir  Ir184  1  0.56046000  0.58696000  0.40922000  1.0
  Ir  Ir185  1  0.63441000  0.64624000  0.52192000  1.0
  Ir  Ir186  1  0.44487000  0.65103000  0.56727000  1.0
  Ir  Ir187  1  0.38050000  0.52208000  0.58559000  1.0
  Ir  Ir188  1  0.32700000  0.46615000  0.46752000  1.0
  Ir  Ir189  1  0.43486000  0.35912000  0.46662000  1.0
  Ir  Ir190  1  0.69093000  0.46688000  0.52334000  1.0
  Ir  Ir191  1  0.59109000  0.36018000  0.54099000  1.0
  C  C192  1  0.01358000  0.06372000  0.98665000  1.0
  C  C193  1  0.97254000  0.06659000  0.99258000  1.0
  C  C194  1  0.97010000  0.02618000  0.99138000  1.0
  C  C195  1  0.00085000  0.02706000  0.97336000  1.0
  C  C196  1  0.48578000  0.52985000  0.51240000  1.0
  C  C197  1  0.53057000  0.53242000  0.51674000  1.0
  C  C198  1  0.53057000  0.49437000  0.50553000  1.0
  C  C199  1  0.48946000  0.48957000  0.51087000  1.0
  C  C200  1  0.74360000  0.19249000  0.10997000  1.0
  C  C201  1  0.69313000  0.20509000  0.15381000  1.0
  C  C202  1  0.81813000  0.18030000  0.09985000  1.0
  C  C203  1  0.67815000  0.14277000  0.11230000  1.0
  C  C204  1  0.58140000  0.23251000  0.04369000  1.0
  C  C205  1  0.59326000  0.24785000  0.07251000  1.0
  C  C206  1  0.62886000  0.23764000  0.09336000  1.0
  C  C207  1  0.78612000  0.19309000  0.07645000  1.0
  C  C208  1  0.65283000  0.21196000  0.08556000  1.0
  C  C209  1  0.66952000  0.19919000  0.19834000  1.0
  C  C210  1  0.70685000  0.11662000  0.11469000  1.0
  C  C211  1  0.72523000  0.23713000  0.19967000  1.0
  C  C212  1  0.74908000  0.19900000  0.08145000  1.0
  C  C213  1  0.62737000  0.09774000  0.10579000  1.0
  C  C214  1  0.60657000  0.20851000  0.03531000  1.0
  C  C215  1  0.69970000  0.22153000  0.21445000  1.0
  C  C216  1  0.64197000  0.19822000  0.05613000  1.0
  C  C217  1  0.72176000  0.22916000  0.16943000  1.0
  C  C218  1  0.65633000  0.07181000  0.10832000  1.0
  C  C219  1  0.69599000  0.08154000  0.11253000  1.0
  C  C220  1  0.81316000  0.17605000  0.12883000  1.0
  C  C221  1  0.77636000  0.18231000  0.13388000  1.0
  C  C222  1  0.63818000  0.13306000  0.10741000  1.0
  C  C223  1  0.66622000  0.19107000  0.16819000  1.0
  C  C224  1  0.26735000  0.19973000  0.89613000  1.0
  C  C225  1  0.30962000  0.20542000  0.84485000  1.0
  C  C226  1  0.19404000  0.19286000  0.90949000  1.0
  C  C227  1  0.32383000  0.14499000  0.89059000  1.0
  C  C228  1  0.42903000  0.23272000  0.95547000  1.0
  C  C229  1  0.39196000  0.24478000  0.95725000  1.0
  C  C230  1  0.35714000  0.23495000  0.93521000  1.0
  C  C231  1  0.22985000  0.18716000  0.93203000  1.0
  C  C232  1  0.35923000  0.21296000  0.91132000  1.0
  C  C233  1  0.27668000  0.19937000  0.79106000  1.0
  C  C234  1  0.33888000  0.13204000  0.92018000  1.0
  C  C235  1  0.33505000  0.23596000  0.80788000  1.0
  C  C236  1  0.26616000  0.19036000  0.92535000  1.0
  C  C237  1  0.31784000  0.08537000  0.87164000  1.0
  C  C238  1  0.43104000  0.21216000  0.93078000  1.0
  C  C239  1  0.30482000  0.22146000  0.78430000  1.0
  C  C240  1  0.39646000  0.20235000  0.90892000  1.0
  C  C241  1  0.33739000  0.22804000  0.83797000  1.0
  C  C242  1  0.33088000  0.07264000  0.90130000  1.0
  C  C243  1  0.34229000  0.09612000  0.92551000  1.0
  C  C244  1  0.19532000  0.20462000  0.88092000  1.0
  C  C245  1  0.23170000  0.20859000  0.87447000  1.0
  C  C246  1  0.31455000  0.12132000  0.86629000  1.0
  C  C247  1  0.27901000  0.19150000  0.82109000  1.0
  C  C248  1  0.34592000  0.79124000  0.96630000  1.0
  C  C249  1  0.27437000  0.78434000  0.91052000  1.0
  C  C250  1  0.42296000  0.77002000  0.99756000  1.0
  C  C251  1  0.30865000  0.85485000  0.93500000  1.0
  C  C252  1  0.20005000  0.84350000  0.98971000  1.0
  C  C253  1  0.19473000  0.81269000  0.97230000  1.0
  C  C254  1  0.22578000  0.79921000  0.96226000  1.0
  C  C255  1  0.39173000  0.76543000  0.01070000  1.0
  C  C256  1  0.26248000  0.81639000  0.96948000  1.0
  C  C257  1  0.28325000  0.74533000  0.87138000  1.0
  C  C258  1  0.33727000  0.87495000  0.95580000  1.0
  C  C259  1  0.22283000  0.77926000  0.86277000  1.0
  C  C260  1  0.35320000  0.77611000  0.99508000  1.0
  C  C261  1  0.29444000  0.90462000  0.90089000  1.0
  C  C262  1  0.23843000  0.85754000  0.00041000  1.0
  C  C263  1  0.24683000  0.75624000  0.85206000  1.0
  C  C264  1  0.26948000  0.84389000  0.99049000  1.0
  C  C265  1  0.23644000  0.79305000  0.89196000  1.0
  C  C266  1  0.32159000  0.92500000  0.92234000  1.0
  C  C267  1  0.34351000  0.90986000  0.94961000  1.0
  C  C268  1  0.41516000  0.78419000  0.96845000  1.0
  C  C269  1  0.37700000  0.79472000  0.95297000  1.0
  C  C270  1  0.28796000  0.86980000  0.90718000  1.0
  C  C271  1  0.29687000  0.75918000  0.90049000  1.0
  C  C272  1  0.67021000  0.79250000  0.05908000  1.0
  C  C273  1  0.74362000  0.80189000  0.11455000  1.0
  C  C274  1  0.59105000  0.76944000  0.04081000  1.0
  C  C275  1  0.69439000  0.86166000  0.08170000  1.0
  C  C276  1  0.79055000  0.86345000  0.01777000  1.0
  C  C277  1  0.75779000  0.84245000  0.00377000  1.0
  C  C278  1  0.73794000  0.82397000  0.02139000  1.0
  C  C279  1  0.60502000  0.79262000  0.02260000  1.0
  C  C280  1  0.75065000  0.82661000  0.05307000  1.0
  C  C281  1  0.76660000  0.81180000  0.16870000  1.0
  C  C282  1  0.66596000  0.86378000  0.09786000  1.0
  C  C283  1  0.76371000  0.75288000  0.14887000  1.0
  C  C284  1  0.64419000  0.80433000  0.03181000  1.0
  C  C285  1  0.69031000  0.92442000  0.07443000  1.0
  C  C286  1  0.80582000  0.86280000  0.04936000  1.0
  C  C287  1  0.76987000  0.77562000  0.17368000  1.0
  C  C288  1  0.78625000  0.84416000  0.06691000  1.0
  C  C289  1  0.75139000  0.76607000  0.11939000  1.0
  C  C290  1  0.66256000  0.92670000  0.09103000  1.0
  C  C291  1  0.64992000  0.89613000  0.10237000  1.0
  C  C292  1  0.61726000  0.75612000  0.06722000  1.0
  C  C293  1  0.65654000  0.76771000  0.07640000  1.0
  C  C294  1  0.70576000  0.89221000  0.06950000  1.0
  C  C295  1  0.75340000  0.82487000  0.13930000  1.0
  C  C296  1  0.23425000  0.66561000  0.61470000  1.0
  C  C297  1  0.20207000  0.68975000  0.66812000  1.0
  C  C298  1  0.30352000  0.64441000  0.60022000  1.0
  C  C299  1  0.17605000  0.62230000  0.63243000  1.0
  C  C300  1  0.07623000  0.70528000  0.55727000  1.0
  C  C301  1  0.11324000  0.70922000  0.55163000  1.0
  C  C302  1  0.14818000  0.70130000  0.57422000  1.0
  C  C303  1  0.26616000  0.63235000  0.58321000  1.0
  C  C304  1  0.14628000  0.68911000  0.60251000  1.0
  C  C305  1  0.24257000  0.69164000  0.72044000  1.0
  C  C306  1  0.19361000  0.60212000  0.65820000  1.0
  C  C307  1  0.18286000  0.72672000  0.70454000  1.0
  C  C308  1  0.23187000  0.64314000  0.59017000  1.0
  C  C309  1  0.15126000  0.56913000  0.60468000  1.0
  C  C310  1  0.07460000  0.69519000  0.58613000  1.0
  C  C311  1  0.21570000  0.71493000  0.72747000  1.0
  C  C312  1  0.10933000  0.68679000  0.60847000  1.0
  C  C313  1  0.17621000  0.71435000  0.67499000  1.0
  C  C314  1  0.17223000  0.54903000  0.62944000  1.0
  C  C315  1  0.19154000  0.56565000  0.65675000  1.0
  C  C316  1  0.30566000  0.66981000  0.62266000  1.0
  C  C317  1  0.27115000  0.68036000  0.62987000  1.0
  C  C318  1  0.15286000  0.60552000  0.60625000  1.0
  C  C319  1  0.23585000  0.67921000  0.69095000  1.0
  C  C320  1  0.76873000  0.67346000  0.40643000  1.0
  C  C321  1  0.80226000  0.69394000  0.35270000  1.0
  C  C322  1  0.70120000  0.66194000  0.42695000  1.0
  C  C323  1  0.82620000  0.62653000  0.39147000  1.0
  C  C324  1  0.92967000  0.70868000  0.46107000  1.0
  C  C325  1  0.89340000  0.71506000  0.46729000  1.0
  C  C326  1  0.85755000  0.70799000  0.44538000  1.0
  C  C327  1  0.73924000  0.65306000  0.44518000  1.0
  C  C328  1  0.85783000  0.69401000  0.41728000  1.0
  C  C329  1  0.76702000  0.69382000  0.29910000  1.0
  C  C330  1  0.84855000  0.61153000  0.41886000  1.0
  C  C331  1  0.81914000  0.73615000  0.31886000  1.0
  C  C332  1  0.77255000  0.65854000  0.43494000  1.0
  C  C333  1  0.81543000  0.56849000  0.36920000  1.0
  C  C334  1  0.92975000  0.69748000  0.43212000  1.0
  C  C335  1  0.79068000  0.72148000  0.29419000  1.0
  C  C336  1  0.89409000  0.68995000  0.41047000  1.0
  C  C337  1  0.82500000  0.72241000  0.34786000  1.0
  C  C338  1  0.83551000  0.55367000  0.39713000  1.0
  C  C339  1  0.85323000  0.57540000  0.42165000  1.0
  C  C340  1  0.69736000  0.67765000  0.39870000  1.0
  C  C341  1  0.73092000  0.68368000  0.38864000  1.0
  C  C342  1  0.81100000  0.60474000  0.36633000  1.0
  C  C343  1  0.77227000  0.68061000  0.32823000  1.0
  C  C344  1  0.84620000  0.26791000  0.46110000  1.0
  C  C345  1  0.77816000  0.26980000  0.40196000  1.0
  C  C346  1  0.92588000  0.24837000  0.48544000  1.0
  C  C347  1  0.81288000  0.33564000  0.42909000  1.0
  C  C348  1  0.71698000  0.33166000  0.49459000  1.0
  C  C349  1  0.74771000  0.30855000  0.50856000  1.0
  C  C350  1  0.77031000  0.29260000  0.49154000  1.0
  C  C351  1  0.90771000  0.27070000  0.50168000  1.0
  C  C352  1  0.76259000  0.30000000  0.46054000  1.0
  C  C353  1  0.78360000  0.26007000  0.35128000  1.0
  C  C354  1  0.84520000  0.35433000  0.44749000  1.0
  C  C355  1  0.72245000  0.24566000  0.36317000  1.0
  C  C356  1  0.86799000  0.28024000  0.48965000  1.0
  C  C357  1  0.79464000  0.38675000  0.39673000  1.0
  C  C358  1  0.70706000  0.33645000  0.46319000  1.0
  C  C359  1  0.74449000  0.24781000  0.34210000  1.0
  C  C360  1  0.72952000  0.32059000  0.44629000  1.0
  C  C361  1  0.73928000  0.25663000  0.39309000  1.0
  C  C362  1  0.82594000  0.40561000  0.41584000  1.0
  C  C363  1  0.85164000  0.38911000  0.44093000  1.0
  C  C364  1  0.90295000  0.23279000  0.45872000  1.0
  C  C365  1  0.86320000  0.24229000  0.44675000  1.0
  C  C366  1  0.78810000  0.35210000  0.40334000  1.0
  C  C367  1  0.80024000  0.27107000  0.38091000  1.0
  C  C368  1  0.17501000  0.27719000  0.54831000  1.0
  C  C369  1  0.25385000  0.27414000  0.59779000  1.0
  C  C370  1  0.09601000  0.25500000  0.52505000  1.0
  C  C371  1  0.21426000  0.34162000  0.57658000  1.0
  C  C372  1  0.29512000  0.33225000  0.49595000  1.0
  C  C373  1  0.25344000  0.33167000  0.48661000  1.0
  C  C374  1  0.23227000  0.31752000  0.50537000  1.0
  C  C375  1  0.12324000  0.25010000  0.50816000  1.0
  C  C376  1  0.25238000  0.30436000  0.53405000  1.0
  C  C377  1  0.25229000  0.23295000  0.63752000  1.0
  C  C378  1  0.20735000  0.37063000  0.55713000  1.0
  C  C379  1  0.30083000  0.27968000  0.64764000  1.0
  C  C380  1  0.16269000  0.26106000  0.51982000  1.0
  C  C381  1  0.20401000  0.37863000  0.61673000  1.0
  C  C382  1  0.31515000  0.31581000  0.52329000  1.0
  C  C383  1  0.28255000  0.25162000  0.65804000  1.0
  C  C384  1  0.29393000  0.30209000  0.54224000  1.0
  C  C385  1  0.28652000  0.29091000  0.61766000  1.0
  C  C386  1  0.19800000  0.40756000  0.59737000  1.0
  C  C387  1  0.19929000  0.40333000  0.56745000  1.0
  C  C388  1  0.10910000  0.26905000  0.55423000  1.0
  C  C389  1  0.14829000  0.27988000  0.56581000  1.0
  C  C390  1  0.21176000  0.34585000  0.60633000  1.0
  C  C391  1  0.23812000  0.24405000  0.60750000  1.0
  C  C392  1  0.70652000  0.22668000  0.24728000  1.0
  C  C393  1  0.69582000  0.25842000  0.25836000  1.0
  C  C394  1  0.70618000  0.26456000  0.28972000  1.0
  C  C395  1  0.72698000  0.23886000  0.30997000  1.0
  C  C396  1  0.73600000  0.20651000  0.29895000  1.0
  C  C397  1  0.72587000  0.20042000  0.26762000  1.0
  C  C398  1  0.29091000  0.24492000  0.69085000  1.0
  C  C399  1  0.31285000  0.21530000  0.70410000  1.0
  C  C400  1  0.31816000  0.20795000  0.73494000  1.0
  C  C401  1  0.30158000  0.23023000  0.75251000  1.0
  C  C402  1  0.28027000  0.26015000  0.73941000  1.0
  C  C403  1  0.27482000  0.26746000  0.70862000  1.0
  C  C404  1  0.23618000  0.74647000  0.81983000  1.0
  C  C405  1  0.24554000  0.76939000  0.79887000  1.0
  C  C406  1  0.23827000  0.75928000  0.76847000  1.0
  C  C407  1  0.22162000  0.72628000  0.75902000  1.0
  C  C408  1  0.21153000  0.70364000  0.77986000  1.0
  C  C409  1  0.21891000  0.71372000  0.81029000  1.0
  C  C410  1  0.77555000  0.76162000  0.20452000  1.0
  C  C411  1  0.74490000  0.76532000  0.21859000  1.0
  C  C412  1  0.75016000  0.75276000  0.24812000  1.0
  C  C413  1  0.78549000  0.73526000  0.26331000  1.0
  C  C414  1  0.81578000  0.73085000  0.24897000  1.0
  C  C415  1  0.81102000  0.74444000  0.21977000  1.0
  C  C416  1  0.64628000  0.03425000  0.10590000  1.0
  C  C417  1  0.62751000  0.01954000  0.07741000  1.0
  C  C418  1  0.62854000  0.98316000  0.07341000  1.0
  C  C419  1  0.64937000  0.96173000  0.09759000  1.0
  C  C420  1  0.66440000  0.97608000  0.12678000  1.0
  C  C421  1  0.66223000  0.01232000  0.13098000  1.0
  C  C422  1  0.32462000  0.96280000  0.91726000  1.0
  C  C423  1  0.29458000  0.98531000  0.92099000  1.0
  C  C424  1  0.29679000  0.02130000  0.91575000  1.0
  C  C425  1  0.32926000  0.03489000  0.90713000  1.0
  C  C426  1  0.35955000  0.01249000  0.90374000  1.0
  C  C427  1  0.35719000  0.97638000  0.90875000  1.0
  C  C428  1  0.19213000  0.44271000  0.60855000  1.0
  C  C429  1  0.22339000  0.46709000  0.61411000  1.0
  C  C430  1  0.21708000  0.50163000  0.62192000  1.0
  C  C431  1  0.17966000  0.51174000  0.62481000  1.0
  C  C432  1  0.14883000  0.48700000  0.62037000  1.0
  C  C433  1  0.15502000  0.45247000  0.61213000  1.0
  C  C434  1  0.82918000  0.44347000  0.41125000  1.0
  C  C435  1  0.80358000  0.46644000  0.42059000  1.0
  C  C436  1  0.80564000  0.50250000  0.41573000  1.0
  C  C437  1  0.83364000  0.51570000  0.40184000  1.0
  C  C438  1  0.85947000  0.49281000  0.39270000  1.0
  C  C439  1  0.85720000  0.45661000  0.39738000  1.0
  C  C440  1  0.54066000  0.23739000  0.02372000  1.0
  C  C441  1  0.50977000  0.21637000  0.02811000  1.0
  C  C442  1  0.47231000  0.21655000  0.00661000  1.0
  C  C443  1  0.46555000  0.23785000  0.98066000  1.0
  C  C444  1  0.49584000  0.26020000  0.97707000  1.0
  C  C445  1  0.53340000  0.25993000  0.99858000  1.0
  C  C446  1  0.46473000  0.76399000  0.01465000  1.0
  C  C447  1  0.48656000  0.73742000  0.00536000  1.0
  C  C448  1  0.52827000  0.73777000  0.01536000  1.0
  C  C449  1  0.54796000  0.76450000  0.03481000  1.0
  C  C450  1  0.52611000  0.78930000  0.04612000  1.0
  C  C451  1  0.48449000  0.78918000  0.03593000  1.0
  C  C452  1  0.96717000  0.70852000  0.48575000  1.0
  C  C453  1  0.98647000  0.74000000  0.49718000  1.0
  C  C454  1  0.02244000  0.73915000  0.52053000  1.0
  C  C455  1  0.03918000  0.70682000  0.53220000  1.0
  C  C456  1  0.02002000  0.67535000  0.52049000  1.0
  C  C457  1  0.98389000  0.67620000  0.49758000  1.0
  C  C458  1  0.96956000  0.24710000  0.49316000  1.0
  C  C459  1  0.98958000  0.27340000  0.48181000  1.0
  C  C460  1  0.03121000  0.27481000  0.49106000  1.0
  C  C461  1  0.05300000  0.24967000  0.51146000  1.0
  C  C462  1  0.03300000  0.22247000  0.52179000  1.0
  C  C463  1  0.99122000  0.22122000  0.51265000  1.0
  C  C464  1  0.02463000  0.09183000  0.96709000  1.0
  C  C465  1  0.15573000  0.18317000  0.91486000  1.0
  C  C466  1  0.02738000  0.08524000  0.93725000  1.0
  C  C467  1  0.04065000  0.12350000  0.98178000  1.0
  C  C468  1  0.05983000  0.14049000  0.93803000  1.0
  C  C469  1  0.08869000  0.15920000  0.92751000  1.0
  C  C470  1  0.13064000  0.15846000  0.89584000  1.0
  C  C471  1  0.14569000  0.19463000  0.94094000  1.0
  C  C472  1  0.04493000  0.11034000  0.92294000  1.0
  C  C473  1  0.05848000  0.14756000  0.96686000  1.0
  C  C474  1  0.96991000  0.08625000  0.02065000  1.0
  C  C475  1  0.85513000  0.16804000  0.09346000  1.0
  C  C476  1  0.96185000  0.06928000  0.04585000  1.0
  C  C477  1  0.96569000  0.12321000  0.01797000  1.0
  C  C478  1  0.94536000  0.12480000  0.06324000  1.0
  C  C479  1  0.91928000  0.14189000  0.07775000  1.0
  C  C480  1  0.87073000  0.13458000  0.10336000  1.0
  C  C481  1  0.87319000  0.18734000  0.07472000  1.0
  C  C482  1  0.94959000  0.08926000  0.06709000  1.0
  C  C483  1  0.95310000  0.14215000  0.03950000  1.0
  C  C484  1  0.93035000  0.00923000  0.97645000  1.0
  C  C485  1  0.80522000  0.88988000  0.00027000  1.0
  C  C486  1  0.89609000  0.02096000  0.98422000  1.0
  C  C487  1  0.92979000  0.97555000  0.96323000  1.0
  C  C488  1  0.86376000  0.96667000  0.96641000  1.0
  C  C489  1  0.83801000  0.94056000  0.97296000  1.0
  C  C490  1  0.79775000  0.92563000  0.00400000  1.0
  C  C491  1  0.83042000  0.88083000  0.98247000  1.0
  C  C492  1  0.86286000  0.99913000  0.97906000  1.0
  C  C493  1  0.89597000  0.95461000  0.95811000  1.0
  C  C494  1  0.03083000  0.99745000  0.97911000  1.0
  C  C495  1  0.16511000  0.86439000  0.99148000  1.0
  C  C496  1  0.05849000  0.99060000  0.00791000  1.0
  C  C497  1  0.02925000  0.97449000  0.95442000  1.0
  C  C498  1  0.07796000  0.93853000  0.98713000  1.0
  C  C499  1  0.10508000  0.91040000  0.98990000  1.0
  C  C500  1  0.16520000  0.88487000  0.01725000  1.0
  C  C501  1  0.13303000  0.86860000  0.96501000  1.0
  C  C502  1  0.08262000  0.96067000  0.01116000  1.0
  C  C503  1  0.05291000  0.94471000  0.95912000  1.0
  C  C504  1  0.54482000  0.56110000  0.49945000  1.0
  C  C505  1  0.66582000  0.65327000  0.43712000  1.0
  C  C506  1  0.53663000  0.56126000  0.46729000  1.0
  C  C507  1  0.57008000  0.58731000  0.51673000  1.0
  C  C508  1  0.57859000  0.61148000  0.47127000  1.0
  C  C509  1  0.60473000  0.63045000  0.45824000  1.0
  C  C510  1  0.63355000  0.63444000  0.41815000  1.0
  C  C511  1  0.66569000  0.65973000  0.46732000  1.0
  C  C512  1  0.55463000  0.58674000  0.45361000  1.0
  C  C513  1  0.58682000  0.61240000  0.50210000  1.0
  C  C514  1  0.47116000  0.54502000  0.53782000  1.0
  C  C515  1  0.33978000  0.62752000  0.59652000  1.0
  C  C516  1  0.47537000  0.58164000  0.54352000  1.0
  C  C517  1  0.44639000  0.52521000  0.55144000  1.0
  C  C518  1  0.43315000  0.57695000  0.57596000  1.0
  C  C519  1  0.40449000  0.59447000  0.58742000  1.0
  C  C520  1  0.37079000  0.64695000  0.59021000  1.0
  C  C521  1  0.34281000  0.59066000  0.59742000  1.0
  C  C522  1  0.45585000  0.59726000  0.56285000  1.0
  C  C523  1  0.42786000  0.54177000  0.57079000  1.0
  C  C524  1  0.45727000  0.47100000  0.48656000  1.0
  C  C525  1  0.31729000  0.35466000  0.47999000  1.0
  C  C526  1  0.41730000  0.48282000  0.48002000  1.0
  C  C527  1  0.46453000  0.43653000  0.47785000  1.0
  C  C528  1  0.39444000  0.42637000  0.46015000  1.0
  C  C529  1  0.36446000  0.40077000  0.46023000  1.0
  C  C530  1  0.30615000  0.39004000  0.47424000  1.0
  C  C531  1  0.35342000  0.34364000  0.47512000  1.0
  C  C532  1  0.38613000  0.46019000  0.46642000  1.0
  C  C533  1  0.43258000  0.41417000  0.46529000  1.0
  C  C534  1  0.56546000  0.47259000  0.52360000  1.0
  C  C535  1  0.69890000  0.35478000  0.51261000  1.0
  C  C536  1  0.60409000  0.48411000  0.52408000  1.0
  C  C537  1  0.56040000  0.43780000  0.53288000  1.0
  C  C538  1  0.62986000  0.42741000  0.54079000  1.0
  C  C539  1  0.65804000  0.40178000  0.53717000  1.0
  C  C540  1  0.70963000  0.39041000  0.51534000  1.0
  C  C541  1  0.66642000  0.34388000  0.52269000  1.0
  C  C542  1  0.63619000  0.46115000  0.53302000  1.0
  C  C543  1  0.59314000  0.41527000  0.54100000  1.0
  Br  Br544  1  0.74073000  0.15692000  0.25252000  1.0
  Br  Br545  1  0.76377000  0.17120000  0.32691000  1.0
  Br  Br546  1  0.66779000  0.29366000  0.23048000  1.0
  Br  Br547  1  0.69394000  0.30890000  0.30497000  1.0
  Br  Br548  1  0.24361000  0.30753000  0.69054000  1.0
  Br  Br549  1  0.25756000  0.29052000  0.76359000  1.0
  Br  Br550  1  0.33548000  0.18494000  0.67994000  1.0
  Br  Br551  1  0.34771000  0.16719000  0.75318000  1.0
  Br  Br552  1  0.20573000  0.68275000  0.83906000  1.0
  Br  Br553  1  0.18755000  0.65887000  0.76660000  1.0
  Br  Br554  1  0.26967000  0.81416000  0.81212000  1.0
  Br  Br555  1  0.25238000  0.79005000  0.73995000  1.0
  Br  Br556  1  0.85340000  0.74024000  0.20093000  1.0
  Br  Br557  1  0.86331000  0.70516000  0.26886000  1.0
  Br  Br558  1  0.69491000  0.78643000  0.19701000  1.0
  Br  Br559  1  0.70939000  0.76063000  0.26811000  1.0
  Br  Br560  1  0.68361000  0.03244000  0.17070000  1.0
  Br  Br561  1  0.69220000  0.94699000  0.16033000  1.0
  Br  Br562  1  0.60439000  0.04924000  0.04309000  1.0
  Br  Br563  1  0.60389000  0.96269000  0.03431000  1.0
  Br  Br564  1  0.39806000  0.94539000  0.90349000  1.0
  Br  Br565  1  0.40426000  0.03146000  0.89250000  1.0
  Br  Br566  1  0.25076000  0.96687000  0.93386000  1.0
  Br  Br567  1  0.25490000  0.05199000  0.91981000  1.0
  Br  Br568  1  0.11226000  0.41899000  0.60438000  1.0
  Br  Br569  1  0.09812000  0.50067000  0.62520000  1.0
  Br  Br570  1  0.27482000  0.45316000  0.61067000  1.0
  Br  Br571  1  0.25909000  0.53561000  0.62656000  1.0
  Br  Br572  1  0.89193000  0.42490000  0.38450000  1.0
  Br  Br573  1  0.89802000  0.51121000  0.37411000  1.0
  Br  Br574  1  0.76605000  0.44844000  0.44051000  1.0
  Br  Br575  1  0.76954000  0.53387000  0.42759000  1.0
  Br  Br576  1  0.57546000  0.28936000  0.99320000  1.0
  Br  Br577  1  0.48608000  0.29027000  0.94214000  1.0
  Br  Br578  1  0.51971000  0.18540000  0.06258000  1.0
  Br  Br579  1  0.43128000  0.18534000  0.01145000  1.0
  Br  Br580  1  0.45491000  0.82579000  0.04870000  1.0
  Br  Br581  1  0.55344000  0.82509000  0.07387000  1.0
  Br  Br582  1  0.45920000  0.70179000  0.97763000  1.0
  Br  Br583  1  0.55861000  0.70311000  0.00115000  1.0
  Br  Br584  1  0.95671000  0.63295000  0.48295000  1.0
  Br  Br585  1  0.04374000  0.63086000  0.53543000  1.0
  Br  Br586  1  0.96384000  0.78407000  0.48055000  1.0
  Br  Br587  1  0.04846000  0.78211000  0.53695000  1.0
  Br  Br588  1  0.96348000  0.18495000  0.52745000  1.0
  Br  Br589  1  0.06294000  0.18747000  0.54893000  1.0
  Br  Br590  1  0.95973000  0.30846000  0.45445000  1.0
  Br  Br591  1  0.05816000  0.31282000  0.47749000  1.0
  N  N592  1  0.11211000  0.18229000  0.94654000  1.0
  N  N593  1  0.09791000  0.14667000  0.90301000  1.0
  N  N594  1  0.90495000  0.17360000  0.06732000  1.0
  N  N595  1  0.90223000  0.12218000  0.09486000  1.0
  N  N596  1  0.84665000  0.90667000  0.96948000  1.0
  N  N597  1  0.81452000  0.95018000  0.99022000  1.0
  N  N598  1  0.10389000  0.89180000  0.96492000  1.0
  N  N599  1  0.13470000  0.90749000  0.01568000  1.0
  N  N600  1  0.63501000  0.64796000  0.47713000  1.0
  N  N601  1  0.60385000  0.62314000  0.42946000  1.0
  N  N602  1  0.37523000  0.57505000  0.59277000  1.0
  N  N603  1  0.40232000  0.62961000  0.58532000  1.0
  N  N604  1  0.37611000  0.36712000  0.46523000  1.0
  N  N605  1  0.33039000  0.41234000  0.46493000  1.0
  N  N606  1  0.64655000  0.36793000  0.53468000  1.0
  N  N607  1  0.68869000  0.41314000  0.52746000  1.0
