# generated using pymatgen
data_Zn3Si2H153C170(SO6)3
_symmetry_space_group_name_H-M   'P 1'
_cell_length_a   56.01290000
_cell_length_b   56.25790000
_cell_length_c   56.34190000
_cell_angle_alpha   93.05900000
_cell_angle_beta   90.16200000
_cell_angle_gamma   90.63300000
_symmetry_Int_Tables_number   1
_chemical_formula_structural   Zn3Si2H153C170(SO6)3
_chemical_formula_sum   'Zn6 Si4 H306 C340 S6 O36'
_cell_volume   177277.96337296
_cell_formula_units_Z   2
loop_
 _symmetry_equiv_pos_site_id
 _symmetry_equiv_pos_as_xyz
  1  'x, y, z'
loop_
 _atom_site_type_symbol
 _atom_site_label
 _atom_site_symmetry_multiplicity
 _atom_site_fract_x
 _atom_site_fract_y
 _atom_site_fract_z
 _atom_site_occupancy
  Zn  Zn0  1  0.39951000  0.02145000  0.07305000  1.0
  Zn  Zn1  1  0.69784000  0.00512000  0.99298000  1.0
  Zn  Zn2  1  0.06317000  0.37643000  0.00481000  1.0
  Zn  Zn3  1  0.07586000  0.08398000  0.68052000  1.0
  Zn  Zn4  1  0.05249000  0.68517000  0.04942000  1.0
  Zn  Zn5  1  0.05634000  0.01451000  0.37717000  1.0
  Si  Si6  1  0.21064000  0.22096000  0.21679000  1.0
  Si  Si7  1  0.84817000  0.21944000  0.83913000  1.0
  Si  Si8  1  0.14323000  0.93311000  0.92152000  1.0
  Si  Si9  1  0.84698000  0.85370000  0.20679000  1.0
  H  H10  1  0.18362000  0.20411000  0.17369000  1.0
  H  H11  1  0.16207000  0.22440000  0.14291000  1.0
  H  H12  1  0.17885000  0.29224000  0.17870000  1.0
  H  H13  1  0.20054000  0.27210000  0.20936000  1.0
  H  H14  1  0.23616000  0.22182000  0.17029000  1.0
  H  H15  1  0.26625000  0.19597000  0.15124000  1.0
  H  H16  1  0.26713000  0.15343000  0.21272000  1.0
  H  H17  1  0.23743000  0.17947000  0.23199000  1.0
  H  H18  1  0.18854000  0.17409000  0.20334000  1.0
  H  H19  1  0.16437000  0.14588000  0.22480000  1.0
  H  H20  1  0.16385000  0.19495000  0.28628000  1.0
  H  H21  1  0.18811000  0.22323000  0.26492000  1.0
  H  H22  1  0.23888000  0.25347000  0.22893000  1.0
  H  H23  1  0.23520000  0.23269000  0.25210000  1.0
  H  H24  1  0.21237000  0.25447000  0.24725000  1.0
  H  H25  1  0.88109000  0.17976000  0.84547000  1.0
  H  H26  1  0.91024000  0.15924000  0.81971000  1.0
  H  H27  1  0.89097000  0.20310000  0.76232000  1.0
  H  H28  1  0.86161000  0.22364000  0.78800000  1.0
  H  H29  1  0.87670000  0.20851000  0.88143000  1.0
  H  H30  1  0.90456000  0.23187000  0.90710000  1.0
  H  H31  1  0.89027000  0.29401000  0.86792000  1.0
  H  H32  1  0.86216000  0.27086000  0.84250000  1.0
  H  H33  1  0.82691000  0.21964000  0.88756000  1.0
  H  H34  1  0.80375000  0.19010000  0.90860000  1.0
  H  H35  1  0.80685000  0.14156000  0.84680000  1.0
  H  H36  1  0.82974000  0.17104000  0.82568000  1.0
  H  H37  1  0.83719000  0.25119000  0.81222000  1.0
  H  H38  1  0.81520000  0.24781000  0.83531000  1.0
  H  H39  1  0.81620000  0.22649000  0.81012000  1.0
  H  H40  1  0.13632000  0.90615000  0.87455000  1.0
  H  H41  1  0.13176000  0.91902000  0.83383000  1.0
  H  H42  1  0.14147000  0.99216000  0.85943000  1.0
  H  H43  1  0.14645000  0.97936000  0.89991000  1.0
  H  H44  1  0.19100000  0.94574000  0.90186000  1.0
  H  H45  1  0.22938000  0.95706000  0.92059000  1.0
  H  H46  1  0.19835000  0.94943000  0.98978000  1.0
  H  H47  1  0.16003000  0.93830000  0.97122000  1.0
  H  H48  1  0.17232000  0.89235000  0.93650000  1.0
  H  H49  1  0.16177000  0.85184000  0.94668000  1.0
  H  H50  1  0.08926000  0.86263000  0.92401000  1.0
  H  H51  1  0.09965000  0.90338000  0.91413000  1.0
  H  H52  1  0.12458000  0.96950000  0.93939000  1.0
  H  H53  1  0.11821000  0.94391000  0.95657000  1.0
  H  H54  1  0.10231000  0.94778000  0.92908000  1.0
  H  H55  1  0.86193000  0.87797000  0.16372000  1.0
  H  H56  1  0.84053000  0.90061000  0.13461000  1.0
  H  H57  1  0.77512000  0.89181000  0.17355000  1.0
  H  H58  1  0.79644000  0.86937000  0.20279000  1.0
  H  H59  1  0.85482000  0.90642000  0.21428000  1.0
  H  H60  1  0.88268000  0.93050000  0.23942000  1.0
  H  H61  1  0.91053000  0.86664000  0.26775000  1.0
  H  H62  1  0.88258000  0.84253000  0.24284000  1.0
  H  H63  1  0.89541000  0.85751000  0.18638000  1.0
  H  H64  1  0.92143000  0.82938000  0.16468000  1.0
  H  H65  1  0.86755000  0.77437000  0.16888000  1.0
  H  H66  1  0.84119000  0.80265000  0.19007000  1.0
  H  H67  1  0.81609000  0.85035000  0.23777000  1.0
  H  H68  1  0.83569000  0.82498000  0.23668000  1.0
  H  H69  1  0.81253000  0.82719000  0.21442000  1.0
  H  H70  1  0.47008000  0.04715000  0.05649000  1.0
  H  H71  1  0.51122000  0.05105000  0.04236000  1.0
  H  H72  1  0.50112000  0.98883000  0.99529000  1.0
  H  H73  1  0.46005000  0.98465000  0.00927000  1.0
  H  H74  1  0.55609000  0.02946000  0.97894000  1.0
  H  H75  1  0.52474000  0.02955000  0.97453000  1.0
  H  H76  1  0.56290000  0.09464000  0.01522000  1.0
  H  H77  1  0.55991000  0.06749000  0.03072000  1.0
  H  H78  1  0.57978000  0.06885000  0.00529000  1.0
  H  H79  1  0.60910000  0.97875000  0.97282000  1.0
  H  H80  1  0.56802000  0.98384000  0.98658000  1.0
  H  H81  1  0.59201000  0.03538000  0.04106000  1.0
  H  H82  1  0.63327000  0.03040000  0.02750000  1.0
  H  H83  1  0.53438000  0.01175000  0.05782000  1.0
  H  H84  1  0.56383000  0.00055000  0.05782000  1.0
  H  H85  1  0.51243000  0.95763000  0.07340000  1.0
  H  H86  1  0.49680000  0.95594000  0.04506000  1.0
  H  H87  1  0.50046000  0.98420000  0.06127000  1.0
  H  H88  1  0.07499000  0.59965000  0.07484000  1.0
  H  H89  1  0.07348000  0.55757000  0.06146000  1.0
  H  H90  1  0.03661000  0.57536000  0.99769000  1.0
  H  H91  1  0.03799000  0.61761000  0.01084000  1.0
  H  H92  1  0.06627000  0.51795000  0.98852000  1.0
  H  H93  1  0.08015000  0.54631000  0.99307000  1.0
  H  H94  1  0.11979000  0.49018000  0.99197000  1.0
  H  H95  1  0.10938000  0.47733000  0.01902000  1.0
  H  H96  1  0.08877000  0.48146000  0.99506000  1.0
  H  H97  1  0.02613000  0.45724000  0.97670000  1.0
  H  H98  1  0.02264000  0.49947000  0.98911000  1.0
  H  H99  1  0.05825000  0.48693000  0.05509000  1.0
  H  H100  1  0.06171000  0.44466000  0.04302000  1.0
  H  H101  1  0.02866000  0.54089000  0.06279000  1.0
  H  H102  1  0.01314000  0.51353000  0.05674000  1.0
  H  H103  1  0.97797000  0.57137000  0.06249000  1.0
  H  H104  1  0.98641000  0.58525000  0.03534000  1.0
  H  H105  1  0.00881000  0.57957000  0.05723000  1.0
  H  H106  1  0.02746000  0.02700000  0.44799000  1.0
  H  H107  1  0.02216000  0.03678000  0.49058000  1.0
  H  H108  1  0.09539000  0.06075000  0.49599000  1.0
  H  H109  1  0.10093000  0.05116000  0.45353000  1.0
  H  H110  1  0.05567000  0.08603000  0.54813000  1.0
  H  H111  1  0.06400000  0.09232000  0.51881000  1.0
  H  H112  1  0.98370000  0.08390000  0.54043000  1.0
  H  H113  1  0.00070000  0.05672000  0.53869000  1.0
  H  H114  1  0.00769000  0.08012000  0.56130000  1.0
  H  H115  1  0.09226000  0.06794000  0.60757000  1.0
  H  H116  1  0.09188000  0.05781000  0.56481000  1.0
  H  H117  1  0.02013000  0.03019000  0.56985000  1.0
  H  H118  1  0.02021000  0.04028000  0.61271000  1.0
  H  H119  1  0.04654000  0.00656000  0.51543000  1.0
  H  H120  1  0.05288000  0.00019000  0.54529000  1.0
  H  H121  1  0.08910000  0.97121000  0.49617000  1.0
  H  H122  1  0.10818000  0.99521000  0.48675000  1.0
  H  H123  1  0.07632000  0.99696000  0.48308000  1.0
  H  H124  1  0.32612000  0.08105000  0.16699000  1.0
  H  H125  1  0.36845000  0.08865000  0.09053000  1.0
  H  H126  1  0.31241000  0.16314000  0.19585000  1.0
  H  H127  1  0.29215000  0.11567000  0.12163000  1.0
  H  H128  1  0.33694000  0.02759000  0.14658000  1.0
  H  H129  1  0.34482000  0.04460000  0.17346000  1.0
  H  H130  1  0.36803000  0.03371000  0.15431000  1.0
  H  H131  1  0.32900000  0.13044000  0.09510000  1.0
  H  H132  1  0.36097000  0.13023000  0.09143000  1.0
  H  H133  1  0.34839000  0.14496000  0.11734000  1.0
  H  H134  1  0.35209000  0.14867000  0.19519000  1.0
  H  H135  1  0.36301000  0.13265000  0.16920000  1.0
  H  H136  1  0.34763000  0.11689000  0.19194000  1.0
  H  H137  1  0.25608000  0.16087000  0.12492000  1.0
  H  H138  1  0.24143000  0.14555000  0.14846000  1.0
  H  H139  1  0.25233000  0.12904000  0.12285000  1.0
  H  H140  1  0.73906000  0.11204000  0.95425000  1.0
  H  H141  1  0.74549000  0.02924000  0.92021000  1.0
  H  H142  1  0.81694000  0.14365000  0.91882000  1.0
  H  H143  1  0.73904000  0.11142000  0.88887000  1.0
  H  H144  1  0.69488000  0.07378000  0.97718000  1.0
  H  H145  1  0.71073000  0.10133000  0.98214000  1.0
  H  H146  1  0.72165000  0.07533000  0.99558000  1.0
  H  H147  1  0.76203000  0.06760000  0.87934000  1.0
  H  H148  1  0.77268000  0.04063000  0.89130000  1.0
  H  H149  1  0.78898000  0.06792000  0.89718000  1.0
  H  H150  1  0.81771000  0.11723000  0.94972000  1.0
  H  H151  1  0.80255000  0.08936000  0.94306000  1.0
  H  H152  1  0.78846000  0.11233000  0.96171000  1.0
  H  H153  1  0.76248000  0.13754000  0.84581000  1.0
  H  H154  1  0.75810000  0.16607000  0.86164000  1.0
  H  H155  1  0.73564000  0.14334000  0.86259000  1.0
  H  H156  1  0.32233000  0.99394000  0.98038000  1.0
  H  H157  1  0.32681000  0.96645000  0.06245000  1.0
  H  H158  1  0.25734000  0.93053000  0.95206000  1.0
  H  H159  1  0.26536000  0.00108000  0.00839000  1.0
  H  H160  1  0.38159000  0.99892000  0.00509000  1.0
  H  H161  1  0.36396000  0.02582000  0.00843000  1.0
  H  H162  1  0.36237000  0.00708000  0.98160000  1.0
  H  H163  1  0.27004000  0.96428000  0.04368000  1.0
  H  H164  1  0.29066000  0.94522000  0.05794000  1.0
  H  H165  1  0.28052000  0.93731000  0.02834000  1.0
  H  H166  1  0.29730000  0.91967000  0.95808000  1.0
  H  H167  1  0.30534000  0.92480000  0.98889000  1.0
  H  H168  1  0.31756000  0.94355000  0.96668000  1.0
  H  H169  1  0.20961000  0.99204000  0.00138000  1.0
  H  H170  1  0.21174000  0.00126000  0.97111000  1.0
  H  H171  1  0.22860000  0.01669000  0.99422000  1.0
  H  H172  1  0.72194000  0.92152000  0.08731000  1.0
  H  H173  1  0.75386000  0.98575000  0.03899000  1.0
  H  H174  1  0.80193000  0.88446000  0.10623000  1.0
  H  H175  1  0.75803000  0.95905000  0.12592000  1.0
  H  H176  1  0.67602000  0.95089000  0.05615000  1.0
  H  H177  1  0.68333000  0.92540000  0.07216000  1.0
  H  H178  1  0.68711000  0.92415000  0.04047000  1.0
  H  H179  1  0.78843000  0.97912000  0.08952000  1.0
  H  H180  1  0.79061000  0.98632000  0.05891000  1.0
  H  H181  1  0.79923000  0.95730000  0.06746000  1.0
  H  H182  1  0.79210000  0.88558000  0.06558000  1.0
  H  H183  1  0.78324000  0.91347000  0.05458000  1.0
  H  H184  1  0.76085000  0.89261000  0.06411000  1.0
  H  H185  1  0.79962000  0.94271000  0.17232000  1.0
  H  H186  1  0.76815000  0.93566000  0.17535000  1.0
  H  H187  1  0.77766000  0.96344000  0.16376000  1.0
  H  H188  1  0.13369000  0.28105000  0.05725000  1.0
  H  H189  1  0.09028000  0.35684000  0.07126000  1.0
  H  H190  1  0.18826000  0.29066000  0.13005000  1.0
  H  H191  1  0.10214000  0.27755000  0.11232000  1.0
  H  H192  1  0.09785000  0.29502000  0.00749000  1.0
  H  H193  1  0.12174000  0.27729000  0.01746000  1.0
  H  H194  1  0.12860000  0.30553000  0.00556000  1.0
  H  H195  1  0.09816000  0.32824000  0.12371000  1.0
  H  H196  1  0.09736000  0.35740000  0.11221000  1.0
  H  H197  1  0.12560000  0.34477000  0.11953000  1.0
  H  H198  1  0.19165000  0.31955000  0.10148000  1.0
  H  H199  1  0.16484000  0.33413000  0.09312000  1.0
  H  H200  1  0.17559000  0.30879000  0.07526000  1.0
  H  H201  1  0.12119000  0.25418000  0.16846000  1.0
  H  H202  1  0.11852000  0.23379000  0.14254000  1.0
  H  H203  1  0.09704000  0.25702000  0.14805000  1.0
  H  H204  1  0.97791000  0.15285000  0.70677000  1.0
  H  H205  1  0.00473000  0.07671000  0.73782000  1.0
  H  H206  1  0.89521000  0.15322000  0.74920000  1.0
  H  H207  1  0.98109000  0.15710000  0.77117000  1.0
  H  H208  1  0.01458000  0.11886000  0.66515000  1.0
  H  H209  1  0.03015000  0.14163000  0.68356000  1.0
  H  H210  1  0.00084000  0.14688000  0.67197000  1.0
  H  H211  1  0.97509000  0.10658000  0.77996000  1.0
  H  H212  1  0.97380000  0.07701000  0.76601000  1.0
  H  H213  1  0.94916000  0.09660000  0.76276000  1.0
  H  H214  1  0.90269000  0.12781000  0.71552000  1.0
  H  H215  1  0.92597000  0.10711000  0.72135000  1.0
  H  H216  1  0.93156000  0.13149000  0.70233000  1.0
  H  H217  1  0.95256000  0.17487000  0.81761000  1.0
  H  H218  1  0.94480000  0.20178000  0.80318000  1.0
  H  H219  1  0.97393000  0.18954000  0.79937000  1.0
  H  H220  1  0.13784000  0.76255000  0.98955000  1.0
  H  H221  1  0.05665000  0.72660000  0.98877000  1.0
  H  H222  1  0.14043000  0.81157000  0.92093000  1.0
  H  H223  1  0.08499000  0.80619000  0.98902000  1.0
  H  H224  1  0.13133000  0.72806000  0.03709000  1.0
  H  H225  1  0.15279000  0.73568000  0.01519000  1.0
  H  H226  1  0.13924000  0.70675000  0.01298000  1.0
  H  H227  1  0.05132000  0.77830000  0.96963000  1.0
  H  H228  1  0.04555000  0.74912000  0.95582000  1.0
  H  H229  1  0.06652000  0.76856000  0.94255000  1.0
  H  H230  1  0.14160000  0.76930000  0.91548000  1.0
  H  H231  1  0.12126000  0.75117000  0.93128000  1.0
  H  H232  1  0.14938000  0.76066000  0.94484000  1.0
  H  H233  1  0.07603000  0.85761000  0.96582000  1.0
  H  H234  1  0.10437000  0.86611000  0.97963000  1.0
  H  H235  1  0.08365000  0.84790000  0.99475000  1.0
  H  H236  1  0.98701000  0.91563000  0.31795000  1.0
  H  H237  1  0.99430000  0.00304000  0.33333333  1.0
  H  H238  1  0.90151000  0.90364000  0.30254000  1.0
  H  H239  1  0.96656000  0.94937000  0.26564000  1.0
  H  H240  1  0.03020000  0.93192000  0.36323000  1.0
  H  H241  1  0.04242000  0.92711000  0.33351000  1.0
  H  H242  1  0.01873000  0.90847000  0.34372000  1.0
  H  H243  1  0.95604000  0.99176000  0.28885000  1.0
  H  H244  1  0.95629000  0.00914000  0.31665000  1.0
  H  H245  1  0.93613000  0.98427000  0.31266000  1.0
  H  H246  1  0.91348000  0.91787000  0.34123000  1.0
  H  H247  1  0.93447000  0.94206000  0.34468000  1.0
  H  H248  1  0.94499000  0.91173000  0.34159000  1.0
  H  H249  1  0.92360000  0.94069000  0.22571000  1.0
  H  H250  1  0.93456000  0.91045000  0.22369000  1.0
  H  H251  1  0.95509000  0.93498000  0.22715000  1.0
  H  H252  1  0.98214000  0.33577000  0.90653000  1.0
  H  H253  1  0.00491000  0.32802000  0.99089000  1.0
  H  H254  1  0.94523000  0.25383000  0.89213000  1.0
  H  H255  1  0.92764000  0.32875000  0.93899000  1.0
  H  H256  1  0.02241000  0.38215000  0.92845000  1.0
  H  H257  1  0.00851000  0.36811000  0.90275000  1.0
  H  H258  1  0.03645000  0.35686000  0.91289000  1.0
  H  H259  1  0.94753000  0.30465000  0.97843000  1.0
  H  H260  1  0.97327000  0.30139000  0.99697000  1.0
  H  H261  1  0.96894000  0.28154000  0.97117000  1.0
  H  H262  1  0.98552000  0.25503000  0.90438000  1.0
  H  H263  1  0.99351000  0.27325000  0.93030000  1.0
  H  H264  1  0.99575000  0.28515000  0.90115000  1.0
  H  H265  1  0.87435000  0.29386000  0.92083000  1.0
  H  H266  1  0.88327000  0.31937000  0.90446000  1.0
  H  H267  1  0.88553000  0.32019000  0.93640000  1.0
  H  H268  1  0.13367000  0.97779000  0.73078000  1.0
  H  H269  1  0.08776000  0.05221000  0.74363000  1.0
  H  H270  1  0.16658000  0.98109000  0.81802000  1.0
  H  H271  1  0.08793000  0.97073000  0.77786000  1.0
  H  H272  1  0.14164000  0.00969000  0.68373000  1.0
  H  H273  1  0.11147000  0.99946000  0.67641000  1.0
  H  H274  1  0.13216000  0.97988000  0.68931000  1.0
  H  H275  1  0.08140000  0.01818000  0.79108000  1.0
  H  H276  1  0.08676000  0.04871000  0.78461000  1.0
  H  H277  1  0.11035000  0.03195000  0.79700000  1.0
  H  H278  1  0.18143000  0.00457000  0.78803000  1.0
  H  H279  1  0.15846000  0.02398000  0.77833000  1.0
  H  H280  1  0.16840000  0.99925000  0.75910000  1.0
  H  H281  1  0.08716000  0.95301000  0.83792000  1.0
  H  H282  1  0.09289000  0.92848000  0.81657000  1.0
  H  H283  1  0.07180000  0.95107000  0.81001000  1.0
  H  H284  1  0.95818000  0.70793000  0.14065000  1.0
  H  H285  1  0.00191000  0.73518000  0.07049000  1.0
  H  H286  1  0.93967000  0.78807000  0.17952000  1.0
  H  H287  1  0.91838000  0.74592000  0.10263000  1.0
  H  H288  1  0.99139000  0.66108000  0.10998000  1.0
  H  H289  1  0.97474000  0.66957000  0.13601000  1.0
  H  H290  1  0.00625000  0.67605000  0.13540000  1.0
  H  H291  1  0.95191000  0.76747000  0.07859000  1.0
  H  H292  1  0.98312000  0.77210000  0.07281000  1.0
  H  H293  1  0.97113000  0.78184000  0.10108000  1.0
  H  H294  1  0.97897000  0.77380000  0.17773000  1.0
  H  H295  1  0.99018000  0.76282000  0.14954000  1.0
  H  H296  1  0.97677000  0.74247000  0.16964000  1.0
  H  H297  1  0.87794000  0.79399000  0.12003000  1.0
  H  H298  1  0.86898000  0.76380000  0.12596000  1.0
  H  H299  1  0.88409000  0.77013000  0.09882000  1.0
  H  H300  1  0.10278000  0.11834000  0.33653000  1.0
  H  H301  1  0.10694000  0.03473000  0.30429000  1.0
  H  H302  1  0.17754000  0.14871000  0.29605000  1.0
  H  H303  1  0.09822000  0.11640000  0.27047000  1.0
  H  H304  1  0.08912000  0.07761000  0.38023000  1.0
  H  H305  1  0.06213000  0.08586000  0.36476000  1.0
  H  H306  1  0.08519000  0.10748000  0.37177000  1.0
  H  H307  1  0.11929000  0.07270000  0.26087000  1.0
  H  H308  1  0.13006000  0.04541000  0.27197000  1.0
  H  H309  1  0.14762000  0.07216000  0.27639000  1.0
  H  H310  1  0.18027000  0.12223000  0.32670000  1.0
  H  H311  1  0.16398000  0.09474000  0.32192000  1.0
  H  H312  1  0.15180000  0.11866000  0.34080000  1.0
  H  H313  1  0.11976000  0.14178000  0.22581000  1.0
  H  H314  1  0.11597000  0.17048000  0.24145000  1.0
  H  H315  1  0.09365000  0.14776000  0.24367000  1.0
  C  C316  1  0.37182000  0.04457000  0.10598000  1.0
  C  C317  1  0.36519000  0.99246000  0.05219000  1.0
  C  C318  1  0.43755000  0.01207000  0.04368000  1.0
  C  C319  1  0.71786000  0.03117000  0.95878000  1.0
  C  C320  1  0.70935000  0.97322000  0.02569000  1.0
  C  C321  1  0.64941000  0.00047000  0.99125000  1.0
  C  C322  1  0.09118000  0.34350000  0.02496000  1.0
  C  C323  1  0.03466000  0.35744000  0.96930000  1.0
  C  C324  1  0.04752000  0.42233000  0.00095000  1.0
  C  C325  1  0.09989000  0.04519000  0.69811000  1.0
  C  C326  1  0.03090000  0.08852000  0.70061000  1.0
  C  C327  1  0.05616000  0.06192000  0.63927000  1.0
  C  C328  1  0.08478000  0.70653000  0.02030000  1.0
  C  C329  1  0.01837000  0.69361000  0.08391000  1.0
  C  C330  1  0.05797000  0.63748000  0.05179000  1.0
  C  C331  1  0.03142000  0.98039000  0.35141000  1.0
  C  C332  1  0.08445000  0.03750000  0.34606000  1.0
  C  C333  1  0.06820000  0.03190000  0.42181000  1.0
  C  C334  1  0.19359000  0.23652000  0.19397000  1.0
  C  C335  1  0.18248000  0.22332000  0.17511000  1.0
  C  C336  1  0.17011000  0.23488000  0.15757000  1.0
  C  C337  1  0.16857000  0.25981000  0.15872000  1.0
  C  C338  1  0.17972000  0.27299000  0.17756000  1.0
  C  C339  1  0.19209000  0.26143000  0.19509000  1.0
  C  C340  1  0.23416000  0.20225000  0.20236000  1.0
  C  C341  1  0.24272000  0.20691000  0.17968000  1.0
  C  C342  1  0.25986000  0.19214000  0.16877000  1.0
  C  C343  1  0.26856000  0.17251000  0.18038000  1.0
  C  C344  1  0.26052000  0.16837000  0.20338000  1.0
  C  C345  1  0.24349000  0.18317000  0.21431000  1.0
  C  C346  1  0.19014000  0.20083000  0.23247000  1.0
  C  C347  1  0.18293000  0.17903000  0.22129000  1.0
  C  C348  1  0.16907000  0.16293000  0.23350000  1.0
  C  C349  1  0.16207000  0.16846000  0.25703000  1.0
  C  C350  1  0.16897000  0.19042000  0.26808000  1.0
  C  C351  1  0.18283000  0.20655000  0.25586000  1.0
  C  C352  1  0.22575000  0.24261000  0.23847000  1.0
  C  C353  1  0.86915000  0.20326000  0.81870000  1.0
  C  C354  1  0.88302000  0.18499000  0.82734000  1.0
  C  C355  1  0.89973000  0.17333000  0.81270000  1.0
  C  C356  1  0.90297000  0.17991000  0.78925000  1.0
  C  C357  1  0.88877000  0.19786000  0.78042000  1.0
  C  C358  1  0.87202000  0.20956000  0.79510000  1.0
  C  C359  1  0.86706000  0.23798000  0.86022000  1.0
  C  C360  1  0.87916000  0.22727000  0.87861000  1.0
  C  C361  1  0.89511000  0.24057000  0.89324000  1.0
  C  C362  1  0.89920000  0.26477000  0.88967000  1.0
  C  C363  1  0.88692000  0.27552000  0.87139000  1.0
  C  C364  1  0.87093000  0.26223000  0.85680000  1.0
  C  C365  1  0.83032000  0.19741000  0.85517000  1.0
  C  C366  1  0.82266000  0.20264000  0.87853000  1.0
  C  C367  1  0.80942000  0.18584000  0.89052000  1.0
  C  C368  1  0.80339000  0.16376000  0.87917000  1.0
  C  C369  1  0.81099000  0.15863000  0.85576000  1.0
  C  C370  1  0.82422000  0.17540000  0.84379000  1.0
  C  C371  1  0.82712000  0.23815000  0.82249000  1.0
  C  C372  1  0.14151000  0.94184000  0.89027000  1.0
  C  C373  1  0.13757000  0.92493000  0.87141000  1.0
  C  C374  1  0.13487000  0.93226000  0.84819000  1.0
  C  C375  1  0.13592000  0.95657000  0.84367000  1.0
  C  C376  1  0.14054000  0.97333000  0.86252000  1.0
  C  C377  1  0.14329000  0.96602000  0.88563000  1.0
  C  C378  1  0.17254000  0.94158000  0.93517000  1.0
  C  C379  1  0.19235000  0.94669000  0.92106000  1.0
  C  C380  1  0.21426000  0.95307000  0.93171000  1.0
  C  C381  1  0.21654000  0.95449000  0.95656000  1.0
  C  C382  1  0.19680000  0.94896000  0.97060000  1.0
  C  C383  1  0.17496000  0.94257000  0.95998000  1.0
  C  C384  1  0.13666000  0.90103000  0.92489000  1.0
  C  C385  1  0.15420000  0.88603000  0.93345000  1.0
  C  C386  1  0.14823000  0.86285000  0.93918000  1.0
  C  C387  1  0.12466000  0.85442000  0.93646000  1.0
  C  C388  1  0.10746000  0.86896000  0.92659000  1.0
  C  C389  1  0.11341000  0.89217000  0.92090000  1.0
  C  C390  1  0.11972000  0.95031000  0.93834000  1.0
  C  C391  1  0.83080000  0.87181000  0.18539000  1.0
  C  C392  1  0.84301000  0.88093000  0.16611000  1.0
  C  C393  1  0.83084000  0.89389000  0.14950000  1.0
  C  C394  1  0.80631000  0.89810000  0.15207000  1.0
  C  C395  1  0.79413000  0.88913000  0.17147000  1.0
  C  C396  1  0.80631000  0.87615000  0.18807000  1.0
  C  C397  1  0.86675000  0.87265000  0.22659000  1.0
  C  C398  1  0.86685000  0.89755000  0.22590000  1.0
  C  C399  1  0.88280000  0.91131000  0.24017000  1.0
  C  C400  1  0.89887000  0.90031000  0.25518000  1.0
  C  C401  1  0.89831000  0.87545000  0.25623000  1.0
  C  C402  1  0.88239000  0.86173000  0.24202000  1.0
  C  C403  1  0.86634000  0.83220000  0.18989000  1.0
  C  C404  1  0.88906000  0.83945000  0.18254000  1.0
  C  C405  1  0.90394000  0.82340000  0.17017000  1.0
  C  C406  1  0.89633000  0.79985000  0.16492000  1.0
  C  C407  1  0.87360000  0.79257000  0.17232000  1.0
  C  C408  1  0.85864000  0.80870000  0.18460000  1.0
  C  C409  1  0.82565000  0.83739000  0.22582000  1.0
  C  C410  1  0.46185000  0.01548000  0.03412000  1.0
  C  C411  1  0.47654000  0.03438000  0.04302000  1.0
  C  C412  1  0.50001000  0.03665000  0.03500000  1.0
  C  C413  1  0.50914000  0.02005000  0.01804000  1.0
  C  C414  1  0.49433000  0.00169000  0.00852000  1.0
  C  C415  1  0.47091000  0.99934000  0.01656000  1.0
  C  C416  1  0.53436000  0.02149000  0.01031000  1.0
  C  C417  1  0.53902000  0.03427000  0.98771000  1.0
  C  C418  1  0.56259000  0.07493000  0.01307000  1.0
  C  C419  1  0.62446000  0.00424000  0.99901000  1.0
  C  C420  1  0.60567000  0.99134000  0.98759000  1.0
  C  C421  1  0.58218000  0.99426000  0.99537000  1.0
  C  C422  1  0.57700000  0.01035000  0.01448000  1.0
  C  C423  1  0.59566000  0.02320000  0.02600000  1.0
  C  C424  1  0.61920000  0.02028000  0.01825000  1.0
  C  C425  1  0.55221000  0.01228000  0.02352000  1.0
  C  C426  1  0.54729000  0.00111000  0.04695000  1.0
  C  C427  1  0.50902000  0.96685000  0.05683000  1.0
  C  C428  1  0.05655000  0.61199000  0.04392000  1.0
  C  C429  1  0.06642000  0.59466000  0.05802000  1.0
  C  C430  1  0.06556000  0.57062000  0.05046000  1.0
  C  C431  1  0.05464000  0.56346000  0.02881000  1.0
  C  C432  1  0.04489000  0.58063000  0.01459000  1.0
  C  C433  1  0.04571000  0.60472000  0.02214000  1.0
  C  C434  1  0.05456000  0.53804000  0.02043000  1.0
  C  C435  1  0.07354000  0.53068000  0.00247000  1.0
  C  C436  1  0.10469000  0.48909000  0.00457000  1.0
  C  C437  1  0.04437000  0.44762000  0.00881000  1.0
  C  C438  1  0.03317000  0.46342000  0.99389000  1.0
  C  C439  1  0.03115000  0.48753000  0.00091000  1.0
  C  C440  1  0.04055000  0.49625000  0.02279000  1.0
  C  C441  1  0.05110000  0.48047000  0.03802000  1.0
  C  C442  1  0.05306000  0.45635000  0.03108000  1.0
  C  C443  1  0.03939000  0.52194000  0.02997000  1.0
  C  C444  1  0.02071000  0.52930000  0.04825000  1.0
  C  C445  1  0.99202000  0.57271000  0.04878000  1.0
  C  C446  1  0.06465000  0.03821000  0.44739000  1.0
  C  C447  1  0.04244000  0.03437000  0.45823000  1.0
  C  C448  1  0.03937000  0.03988000  0.48252000  1.0
  C  C449  1  0.05849000  0.04914000  0.49636000  1.0
  C  C450  1  0.08052000  0.05339000  0.48556000  1.0
  C  C451  1  0.08362000  0.04790000  0.46131000  1.0
  C  C452  1  0.05553000  0.05509000  0.52213000  1.0
  C  C453  1  0.05180000  0.08120000  0.52920000  1.0
  C  C454  1  0.00167000  0.07622000  0.54271000  1.0
  C  C455  1  0.05619000  0.05507000  0.61353000  1.0
  C  C456  1  0.07635000  0.05975000  0.59963000  1.0
  C  C457  1  0.07618000  0.05403000  0.57521000  1.0
  C  C458  1  0.05579000  0.04378000  0.56420000  1.0
  C  C459  1  0.03586000  0.03850000  0.57803000  1.0
  C  C460  1  0.03598000  0.04422000  0.60250000  1.0
  C  C461  1  0.05575000  0.03775000  0.53825000  1.0
  C  C462  1  0.05835000  0.01164000  0.53073000  1.0
  C  C463  1  0.09071000  0.99075000  0.49472000  1.0
  C  C464  1  0.34883000  0.06338000  0.14089000  1.0
  C  C465  1  0.33575000  0.08271000  0.15047000  1.0
  C  C466  1  0.33447000  0.10405000  0.13885000  1.0
  C  C467  1  0.34710000  0.10653000  0.11749000  1.0
  C  C468  1  0.35966000  0.08701000  0.10749000  1.0
  C  C469  1  0.36023000  0.06520000  0.11859000  1.0
  C  C470  1  0.28582000  0.15602000  0.16860000  1.0
  C  C471  1  0.30806000  0.15289000  0.17952000  1.0
  C  C472  1  0.32466000  0.13667000  0.16974000  1.0
  C  C473  1  0.31867000  0.12300000  0.14879000  1.0
  C  C474  1  0.29662000  0.12631000  0.13768000  1.0
  C  C475  1  0.27996000  0.14246000  0.14747000  1.0
  C  C476  1  0.34970000  0.04103000  0.15451000  1.0
  C  C477  1  0.34631000  0.12932000  0.10460000  1.0
  C  C478  1  0.34817000  0.13354000  0.18223000  1.0
  C  C479  1  0.25612000  0.14464000  0.13527000  1.0
  C  C480  1  0.72811000  0.07546000  0.95791000  1.0
  C  C481  1  0.74040000  0.09385000  0.94701000  1.0
  C  C482  1  0.75422000  0.08920000  0.92665000  1.0
  C  C483  1  0.75611000  0.06570000  0.91693000  1.0
  C  C484  1  0.74392000  0.04728000  0.92776000  1.0
  C  C485  1  0.73006000  0.05171000  0.94829000  1.0
  C  C486  1  0.78972000  0.14577000  0.89195000  1.0
  C  C487  1  0.79979000  0.13678000  0.91244000  1.0
  C  C488  1  0.78837000  0.11854000  0.92432000  1.0
  C  C489  1  0.76639000  0.10925000  0.91552000  1.0
  C  C490  1  0.75599000  0.11863000  0.89545000  1.0
  C  C491  1  0.76723000  0.13705000  0.88371000  1.0
  C  C492  1  0.71301000  0.08178000  0.97941000  1.0
  C  C493  1  0.77076000  0.06011000  0.89495000  1.0
  C  C494  1  0.79996000  0.10885000  0.94591000  1.0
  C  C495  1  0.75524000  0.14654000  0.86221000  1.0
  C  C496  1  0.34406000  0.99323000  0.01208000  1.0
  C  C497  1  0.32358000  0.98783000  0.99827000  1.0
  C  C498  1  0.30456000  0.97473000  0.00726000  1.0
  C  C499  1  0.30596000  0.96650000  0.03041000  1.0
  C  C500  1  0.32617000  0.97221000  0.04440000  1.0
  C  C501  1  0.34514000  0.98584000  0.03575000  1.0
  C  C502  1  0.23964000  0.96119000  0.96799000  1.0
  C  C503  1  0.25925000  0.94616000  0.96407000  1.0
  C  C504  1  0.28096000  0.95060000  0.97612000  1.0
  C  C505  1  0.28291000  0.97039000  0.99251000  1.0
  C  C506  1  0.26364000  0.98585000  0.99583000  1.0
  C  C507  1  0.24209000  0.98171000  0.98348000  1.0
  C  C508  1  0.36412000  0.00706000  0.00125000  1.0
  C  C509  1  0.28567000  0.95254000  0.04070000  1.0
  C  C510  1  0.30142000  0.93367000  0.97220000  1.0
  C  C511  1  0.22184000  0.99884000  0.98778000  1.0
  C  C512  1  0.71398000  0.94526000  0.05954000  1.0
  C  C513  1  0.72872000  0.93564000  0.07671000  1.0
  C  C514  1  0.75213000  0.94395000  0.08049000  1.0
  C  C515  1  0.76116000  0.96245000  0.06708000  1.0
  C  C516  1  0.74664000  0.97188000  0.04962000  1.0
  C  C517  1  0.72326000  0.96327000  0.04530000  1.0
  C  C518  1  0.79323000  0.91088000  0.13385000  1.0
  C  C519  1  0.79262000  0.90094000  0.11046000  1.0
  C  C520  1  0.77972000  0.91169000  0.09262000  1.0
  C  C521  1  0.76698000  0.93269000  0.09842000  1.0
  C  C522  1  0.76784000  0.94287000  0.12166000  1.0
  C  C523  1  0.78116000  0.93242000  0.13942000  1.0
  C  C524  1  0.68871000  0.93591000  0.05687000  1.0
  C  C525  1  0.78627000  0.97186000  0.07092000  1.0
  C  C526  1  0.77895000  0.90016000  0.06784000  1.0
  C  C527  1  0.78168000  0.94417000  0.16411000  1.0
  C  C528  1  0.11356000  0.30830000  0.04077000  1.0
  C  C529  1  0.12407000  0.29758000  0.06012000  1.0
  C  C530  1  0.12238000  0.30783000  0.08323000  1.0
  C  C531  1  0.10979000  0.32919000  0.08734000  1.0
  C  C532  1  0.09953000  0.34016000  0.06803000  1.0
  C  C533  1  0.10154000  0.33026000  0.04464000  1.0
  C  C534  1  0.15613000  0.27224000  0.13981000  1.0
  C  C535  1  0.16938000  0.28798000  0.12634000  1.0
  C  C536  1  0.15869000  0.30002000  0.10797000  1.0
  C  C537  1  0.13426000  0.29601000  0.10285000  1.0
  C  C538  1  0.12092000  0.28046000  0.11636000  1.0
  C  C539  1  0.13147000  0.26877000  0.13508000  1.0
  C  C540  1  0.11555000  0.29590000  0.01644000  1.0
  C  C541  1  0.10758000  0.34058000  0.11207000  1.0
  C  C542  1  0.17356000  0.31654000  0.09367000  1.0
  C  C543  1  0.11625000  0.25251000  0.14934000  1.0
  C  C544  1  0.00199000  0.12331000  0.70136000  1.0
  C  C545  1  0.98372000  0.13604000  0.71324000  1.0
  C  C546  1  0.97296000  0.12750000  0.73356000  1.0
  C  C547  1  0.98011000  0.10556000  0.74206000  1.0
  C  C548  1  0.99872000  0.09311000  0.73062000  1.0
  C  C549  1  0.01016000  0.10187000  0.71062000  1.0
  C  C550  1  0.92131000  0.16806000  0.77409000  1.0
  C  C551  1  0.91402000  0.15432000  0.75377000  1.0
  C  C552  1  0.93063000  0.14137000  0.73980000  1.0
  C  C553  1  0.95495000  0.14223000  0.74642000  1.0
  C  C554  1  0.96234000  0.15651000  0.76627000  1.0
  C  C555  1  0.94586000  0.16976000  0.78003000  1.0
  C  C556  1  0.01254000  0.13321000  0.67930000  1.0
  C  C557  1  0.96893000  0.09588000  0.76393000  1.0
  C  C558  1  0.92219000  0.12609000  0.71856000  1.0
  C  C559  1  0.95474000  0.18482000  0.80126000  1.0
  C  C560  1  0.11571000  0.73468000  0.00304000  1.0
  C  C561  1  0.12029000  0.75419000  0.98909000  1.0
  C  C562  1  0.10230000  0.76391000  0.97541000  1.0
  C  C563  1  0.07941000  0.75322000  0.97458000  1.0
  C  C564  1  0.07458000  0.73407000  0.98885000  1.0
  C  C565  1  0.09222000  0.72487000  0.00357000  1.0
  C  C566  1  0.11778000  0.83115000  0.94565000  1.0
  C  C567  1  0.12813000  0.81032000  0.93566000  1.0
  C  C568  1  0.12282000  0.78797000  0.94447000  1.0
  C  C569  1  0.10723000  0.78660000  0.96402000  1.0
  C  C570  1  0.09683000  0.80738000  0.97392000  1.0
  C  C571  1  0.10206000  0.82969000  0.96514000  1.0
  C  C572  1  0.13583000  0.72577000  0.01793000  1.0
  C  C573  1  0.05959000  0.76287000  0.95983000  1.0
  C  C574  1  0.13443000  0.76604000  0.93340000  1.0
  C  C575  1  0.09091000  0.85156000  0.97696000  1.0
  C  C576  1  0.00811000  0.94408000  0.33485000  1.0
  C  C577  1  0.98863000  0.93471000  0.32156000  1.0
  C  C578  1  0.97114000  0.94955000  0.31279000  1.0
  C  C579  1  0.97290000  0.97437000  0.31748000  1.0
  C  C580  1  0.99266000  0.98389000  0.33030000  1.0
  C  C581  1  0.01052000  0.96912000  0.33881000  1.0
  C  C582  1  0.91654000  0.91453000  0.26965000  1.0
  C  C583  1  0.91560000  0.91381000  0.29450000  1.0
  C  C584  1  0.93269000  0.92587000  0.30904000  1.0
  C  C585  1  0.95136000  0.93853000  0.29842000  1.0
  C  C586  1  0.95213000  0.93961000  0.27363000  1.0
  C  C587  1  0.93506000  0.92755000  0.25905000  1.0
  C  C588  1  0.02590000  0.92699000  0.34435000  1.0
  C  C589  1  0.95431000  0.99084000  0.30840000  1.0
  C  C590  1  0.93132000  0.92427000  0.33563000  1.0
  C  C591  1  0.93717000  0.92847000  0.23242000  1.0
  C  C592  1  0.00640000  0.34786000  0.93458000  1.0
  C  C593  1  0.98713000  0.33432000  0.92501000  1.0
  C  C594  1  0.97423000  0.31878000  0.93887000  1.0
  C  C595  1  0.98032000  0.31685000  0.96297000  1.0
  C  C596  1  0.99984000  0.33005000  0.97253000  1.0
  C  C597  1  0.01333000  0.34519000  0.95853000  1.0
  C  C598  1  0.91774000  0.27825000  0.90376000  1.0
  C  C599  1  0.94130000  0.26999000  0.90270000  1.0
  C  C600  1  0.95992000  0.28260000  0.91454000  1.0
  C  C601  1  0.95488000  0.30412000  0.92745000  1.0
  C  C602  1  0.93133000  0.31222000  0.92895000  1.0
  C  C603  1  0.91257000  0.29931000  0.91757000  1.0
  C  C604  1  0.01921000  0.36467000  0.91881000  1.0
  C  C605  1  0.96678000  0.30018000  0.97829000  1.0
  C  C606  1  0.98508000  0.27347000  0.91245000  1.0
  C  C607  1  0.88751000  0.30868000  0.91989000  1.0
  C  C608  1  0.11817000  0.00758000  0.71377000  1.0
  C  C609  1  0.12360000  0.99407000  0.73337000  1.0
  C  C610  1  0.11626000  0.00132000  0.75635000  1.0
  C  C611  1  0.10309000  0.02240000  0.76002000  1.0
  C  C612  1  0.09765000  0.03589000  0.74056000  1.0
  C  C613  1  0.10535000  0.02908000  0.71746000  1.0
  C  C614  1  0.13161000  0.96497000  0.81956000  1.0
  C  C615  1  0.14950000  0.97854000  0.80907000  1.0
  C  C616  1  0.14535000  0.98961000  0.78772000  1.0
  C  C617  1  0.12277000  0.98700000  0.77667000  1.0
  C  C618  1  0.10522000  0.97259000  0.78651000  1.0
  C  C619  1  0.10921000  0.96179000  0.80804000  1.0
  C  C620  1  0.12632000  0.99870000  0.68943000  1.0
  C  C621  1  0.09493000  0.03081000  0.78453000  1.0
  C  C622  1  0.16451000  0.00523000  0.77777000  1.0
  C  C623  1  0.08917000  0.94780000  0.81874000  1.0
  C  C624  1  0.98512000  0.69892000  0.11444000  1.0
  C  C625  1  0.96775000  0.71370000  0.12523000  1.0
  C  C626  1  0.96273000  0.73603000  0.11662000  1.0
  C  C627  1  0.97492000  0.74369000  0.09648000  1.0
  C  C628  1  0.99224000  0.72897000  0.08566000  1.0
  C  C629  1  0.99806000  0.70695000  0.09475000  1.0
  C  C630  1  0.91263000  0.78281000  0.15242000  1.0
  C  C631  1  0.93506000  0.77897000  0.16264000  1.0
  C  C632  1  0.95165000  0.76375000  0.15134000  1.0
  C  C633  1  0.94545000  0.75165000  0.12956000  1.0
  C  C634  1  0.92296000  0.75521000  0.11942000  1.0
  C  C635  1  0.90661000  0.77104000  0.13035000  1.0
  C  C636  1  0.98968000  0.67508000  0.12451000  1.0
  C  C637  1  0.97001000  0.76760000  0.08668000  1.0
  C  C638  1  0.97574000  0.76053000  0.16272000  1.0
  C  C639  1  0.88307000  0.77497000  0.11817000  1.0
  C  C640  1  0.09326000  0.08182000  0.34256000  1.0
  C  C641  1  0.10353000  0.09999000  0.32962000  1.0
  C  C642  1  0.11526000  0.09485000  0.30807000  1.0
  C  C643  1  0.11653000  0.07111000  0.29888000  1.0
  C  C644  1  0.10601000  0.05294000  0.31154000  1.0
  C  C645  1  0.09440000  0.05786000  0.33333333  1.0
  C  C646  1  0.14898000  0.15063000  0.27057000  1.0
  C  C647  1  0.16009000  0.14183000  0.29062000  1.0
  C  C648  1  0.14933000  0.12378000  0.30327000  1.0
  C  C649  1  0.12687000  0.11451000  0.29578000  1.0
  C  C650  1  0.11549000  0.12362000  0.27608000  1.0
  C  C651  1  0.12615000  0.14181000  0.26351000  1.0
  C  C652  1  0.08176000  0.08852000  0.36613000  1.0
  C  C653  1  0.12907000  0.06496000  0.27573000  1.0
  C  C654  1  0.16209000  0.11434000  0.32435000  1.0
  C  C655  1  0.11321000  0.15098000  0.24241000  1.0
  S  S656  1  0.53869000  0.06568000  0.99377000  1.0
  S  S657  1  0.53646000  0.97134000  0.04177000  1.0
  S  S658  1  0.09828000  0.51803000  0.01707000  1.0
  S  S659  1  0.99679000  0.54417000  0.03451000  1.0
  S  S660  1  0.02190000  0.08937000  0.52286000  1.0
  S  S661  1  0.08866000  0.00525000  0.52347000  1.0
  O  O662  1  0.36405000  0.02280000  0.10880000  1.0
  O  O663  1  0.38847000  0.04786000  0.09006000  1.0
  O  O664  1  0.42871000  0.02746000  0.05960000  1.0
  O  O665  1  0.42497000  0.99293000  0.03725000  1.0
  O  O666  1  0.36959000  0.97957000  0.07044000  1.0
  O  O667  1  0.37728000  0.01237000  0.05018000  1.0
  O  O668  1  0.71329000  0.01169000  0.94555000  1.0
  O  O669  1  0.71233000  0.03156000  0.98143000  1.0
  O  O670  1  0.66714000  0.01182000  0.00235000  1.0
  O  O671  1  0.65424000  0.98510000  0.97358000  1.0
  O  O672  1  0.69234000  0.96070000  0.01469000  1.0
  O  O673  1  0.71486000  0.99425000  0.01805000  1.0
  O  O674  1  0.09932000  0.34062000  0.00317000  1.0
  O  O675  1  0.07460000  0.35947000  0.02936000  1.0
  O  O676  1  0.05748000  0.40746000  0.01514000  1.0
  O  O677  1  0.04123000  0.41466000  0.97938000  1.0
  O  O678  1  0.05321000  0.36255000  0.95624000  1.0
  O  O679  1  0.03586000  0.36217000  0.99236000  1.0
  O  O680  1  0.11369000  0.04626000  0.67939000  1.0
  O  O681  1  0.08235000  0.06038000  0.70095000  1.0
  O  O682  1  0.07481000  0.07291000  0.64912000  1.0
  O  O683  1  0.03726000  0.05789000  0.65225000  1.0
  O  O684  1  0.03329000  0.06589000  0.70470000  1.0
  O  O685  1  0.04817000  0.09950000  0.68965000  1.0
  O  O686  1  0.10044000  0.69395000  0.03146000  1.0
  O  O687  1  0.06208000  0.70399000  0.02548000  1.0
  O  O688  1  0.04899000  0.65388000  0.03872000  1.0
  O  O689  1  0.06874000  0.64415000  0.07184000  1.0
  O  O690  1  0.03223000  0.68079000  0.09691000  1.0
  O  O691  1  0.02452000  0.69705000  0.06187000  1.0
  O  O692  1  0.05240000  0.97019000  0.35061000  1.0
  O  O693  1  0.02953000  0.00136000  0.36261000  1.0
  O  O694  1  0.05053000  0.02311000  0.40857000  1.0
  O  O695  1  0.08930000  0.03455000  0.41209000  1.0
  O  O696  1  0.09296000  0.01601000  0.34182000  1.0
  O  O697  1  0.06701000  0.04035000  0.36143000  1.0
