# generated using pymatgen
data_MnH52C74(NO)12
_symmetry_space_group_name_H-M   'P 1'
_cell_length_a   14.97195000
_cell_length_b   41.78538294
_cell_length_c   42.03180000
_cell_angle_alpha   118.91090846
_cell_angle_beta   93.80500000
_cell_angle_gamma   93.72404244
_symmetry_Int_Tables_number   1
_chemical_formula_structural   MnH52C74(NO)12
_chemical_formula_sum   'Mn3 H156 C222 N36 O36'
_cell_volume   22825.41287457
_cell_formula_units_Z   3
loop_
 _symmetry_equiv_pos_site_id
 _symmetry_equiv_pos_as_xyz
  1  'x, y, z'
loop_
 _atom_site_type_symbol
 _atom_site_label
 _atom_site_symmetry_multiplicity
 _atom_site_fract_x
 _atom_site_fract_y
 _atom_site_fract_z
 _atom_site_occupancy
  C  C0  1  0.29694000  0.32972000  0.56750000  1.0
  C  C1  1  0.29462000  0.34992000  0.54906000  1.0
  C  C2  1  0.04870000  0.53260000  0.57860000  1.0
  C  C3  1  0.07830000  0.50364000  0.58251000  1.0
  C  C4  1  0.13914000  0.48210000  0.55975000  1.0
  C  C5  1  0.14154000  0.51701000  0.52939000  1.0
  C  C6  1  0.43898000  0.37122000  0.45044000  1.0
  C  C7  1  0.11510000  0.42425000  0.43465000  1.0
  C  C8  1  0.44222000  0.47834000  0.59076000  1.0
  C  C9  1  0.39120000  0.44855000  0.58790000  1.0
  C  C10  1  0.32496000  0.43737000  0.55882000  1.0
  C  C11  1  0.26016000  0.40651000  0.54651000  1.0
  C  C12  1  0.19448000  0.39451000  0.51615000  1.0
  C  C13  1  0.38818000  0.54486000  0.49424000  1.0
  C  C14  1  0.43988000  0.54742000  0.52347000  1.0
  C  C15  1  0.40520000  0.51926000  0.52923000  1.0
  C  C16  1  0.08162000  0.39515000  0.43996000  1.0
  C  C17  1  0.25492000  0.52520000  0.43332000  1.0
  C  C18  1  0.28454000  0.51127000  0.39860000  1.0
  C  C19  1  0.22380000  0.55996000  0.44973000  1.0
  C  C20  1  0.22308000  0.58009000  0.43120000  1.0
  C  C21  1  0.28206000  0.53222000  0.38093000  1.0
  C  C22  1  0.47560000  0.37776000  0.42429000  1.0
  C  C23  1  0.44678000  0.40591000  0.41865000  1.0
  C  C24  1  0.38266000  0.42729000  0.43977000  1.0
  C  C25  1  0.37578000  0.39320000  0.47095000  1.0
  C  C26  1  0.08094000  0.53947000  0.55186000  1.0
  C  C27  1  0.40614000  0.48456000  0.56329000  1.0
  C  C28  1  0.07942000  0.43052000  0.40710000  1.0
  C  C29  1  0.12834000  0.46104000  0.41082000  1.0
  C  C30  1  0.19322000  0.47254000  0.44034000  1.0
  C  C31  1  0.25724000  0.50351000  0.45279000  1.0
  C  C32  1  0.32304000  0.51529000  0.48289000  1.0
  C  C33  1  0.13032000  0.36446000  0.50420000  1.0
  C  C34  1  0.08064000  0.36114000  0.47409000  1.0
  C  C35  1  0.11532000  0.38937000  0.46853000  1.0
  C  C36  1  0.44162000  0.51263000  0.55688000  1.0
  C  C37  1  0.26322000  0.38463000  0.56576000  1.0
  C  C38  1  0.23506000  0.39846000  0.60071000  1.0
  C  C39  1  0.23910000  0.37744000  0.61828000  1.0
  C  C40  1  0.96135000  0.75161500  0.43300500  1.0
  C  C41  1  0.97738000  0.78992000  0.45072000  1.0
  C  C42  1  0.28326000  0.93518000  0.41137000  1.0
  C  C43  1  0.24118000  0.90357000  0.40950000  1.0
  C  C44  1  0.17718000  0.90655000  0.43309000  1.0
  C  C45  1  0.19506000  0.97120000  0.46018000  1.0
  C  C46  1  0.85180000  0.91050500  0.54192500  1.0
  C  C47  1  0.20280000  0.97873000  0.55850000  1.0
  C  C48  1  0.86824000  0.87215000  0.40304000  1.0
  C  C49  1  0.90888000  0.84629000  0.40799000  1.0
  C  C50  1  0.97670000  0.86504000  0.43677000  1.0
  C  C51  1  0.03304000  0.84773000  0.45073000  1.0
  C  C52  1  0.09960000  0.86701000  0.48115000  1.0
  C  C53  1  0.96206000  0.03457000  0.49235000  1.0
  C  C54  1  0.90665000  0.00734500  0.46366500  1.0
  C  C55  1  0.93118000  0.97422000  0.45958000  1.0
  C  C56  1  0.22426000  0.94534000  0.55599000  1.0
  C  C57  1  0.09514000  0.07762000  0.55412500  1.0
  C  C58  1  0.06494000  0.09775000  0.58854000  1.0
  C  C59  1  0.13328000  0.09635000  0.53736500  1.0
  C  C60  1  0.14018000  0.13471000  0.55521500  1.0
  C  C61  1  0.07382000  0.13609000  0.60555000  1.0
  C  C62  1  0.81794000  0.94307500  0.56496500  1.0
  C  C63  1  0.85972000  0.97634500  0.57011500  1.0
  C  C64  1  0.93272000  0.97605000  0.55081500  1.0
  C  C65  1  0.92416000  0.91142000  0.52322000  1.0
  C  C66  1  0.25958000  0.96941000  0.43680000  1.0
  C  C67  1  0.91184000  0.90607000  0.42899000  1.0
  C  C68  1  0.24502000  0.01290000  0.58479000  1.0
  C  C69  1  0.20656000  0.03849000  0.57885500  1.0
  C  C70  1  0.14121000  0.01946000  0.54928000  1.0
  C  C71  1  0.08538000  0.03672000  0.53532500  1.0
  C  C72  1  0.01942000  0.01749000  0.50503000  1.0
  C  C73  1  0.15456000  0.85014000  0.49500000  1.0
  C  C74  1  0.20752000  0.87760000  0.52479000  1.0
  C  C75  1  0.18419000  0.91057000  0.52825000  1.0
  C  C76  1  0.88780000  0.93970000  0.43304000  1.0
  C  C77  1  0.01912000  0.80694000  0.43303000  1.0
  C  C78  1  0.04386000  0.78519000  0.39788000  1.0
  C  C79  1  0.02592000  0.74699000  0.38106000  1.0
  C  C80  1  0.50564000  0.51583000  0.19863500  1.0
  C  C81  1  0.49073000  0.49844500  0.16054000  1.0
  C  C82  1  0.18393000  0.54166000  0.01972000  1.0
  C  C83  1  0.22667000  0.54259500  0.05058000  1.0
  C  C84  1  0.29071000  0.51861500  0.04669500  1.0
  C  C85  1  0.27160000  0.49295000  0.98258500  1.0
  C  C86  1  0.61677000  0.40734000  0.03778500  1.0
  C  C87  1  0.26398000  0.39292000  0.97231000  1.0
  C  C88  1  0.59989000  0.54816500  0.08001000  1.0
  C  C89  1  0.55963000  0.54258000  0.10542500  1.0
  C  C90  1  0.49184000  0.51370500  0.08645500  1.0
  C  C91  1  0.43594000  0.49908500  0.10327000  1.0
  C  C92  1  0.36957000  0.46852000  0.08373000  1.0
  C  C93  1  0.50332000  0.46144000  0.91844000  1.0
  C  C94  1  0.55931000  0.48982000  0.94575000  1.0
  C  C95  1  0.53534000  0.49317000  0.97846500  1.0
  C  C96  1  0.24352000  0.39459000  0.00524000  1.0
  C  C97  1  0.37025000  0.39951000  0.87494000  1.0
  C  C98  1  0.40045000  0.36494000  0.85454000  1.0
  C  C99  1  0.33223000  0.41680000  0.85672000  1.0
  C  C100  1  0.32548000  0.39933000  0.81860000  1.0
  C  C101  1  0.39173000  0.34832000  0.81645000  1.0
  C  C102  1  0.64830000  0.38421500  0.00478500  1.0
  C  C103  1  0.60466000  0.37980500  0.97231500  1.0
  C  C104  1  0.53219000  0.39984500  0.97376000  1.0
  C  C105  1  0.54469000  0.42679500  0.03802000  1.0
  C  C106  1  0.20699000  0.51675000  0.98529500  1.0
  C  C107  1  0.55601000  0.52252000  0.04613500  1.0
  C  C108  1  0.22111000  0.36706000  0.93821000  1.0
  C  C109  1  0.25887000  0.37375500  0.91310000  1.0
  C  C110  1  0.32439000  0.40336000  0.93235000  1.0
  C  C111  1  0.37997000  0.41789000  0.91557000  1.0
  C  C112  1  0.44614000  0.44820000  0.93505500  1.0
  C  C113  1  0.31492000  0.45403000  0.10009000  1.0
  C  C114  1  0.26153000  0.42447500  0.07250000  1.0
  C  C115  1  0.28425000  0.42181000  0.03997000  1.0
  C  C116  1  0.57964000  0.51911000  0.01291000  1.0
  C  C117  1  0.44932000  0.51649000  0.14380000  1.0
  C  C118  1  0.42382000  0.55168000  0.16562500  1.0
  C  C119  1  0.44064000  0.56817000  0.20361000  1.0
  C  C120  1  0.77582000  0.62958000  0.70844500  1.0
  C  C121  1  0.75364000  0.62365000  0.66918000  1.0
  C  C122  1  0.71840000  0.65873500  0.67085000  1.0
  C  C123  1  0.67898000  0.59054500  0.64817500  1.0
  C  C124  1  0.84016000  0.61480000  0.64906000  1.0
  C  C125  1  0.53692000  0.98210500  0.70514000  1.0
  C  C126  1  0.53292000  0.94865000  0.66573500  1.0
  C  C127  1  0.56016000  0.91430500  0.66798500  1.0
  C  C128  1  0.60224000  0.95875000  0.64512000  1.0
  C  C129  1  0.43649000  0.93946000  0.64462000  1.0
  C  C130  1  0.93616000  0.24324000  0.96610500  1.0
  C  C131  1  0.93498000  0.28284000  0.99881500  1.0
  C  C132  1  0.90466000  0.28052000  0.03248000  1.0
  C  C133  1  0.86562000  0.30271500  0.98749500  1.0
  C  C134  1  0.03034000  0.30508000  0.00941000  1.0
  C  C135  1  0.78744000  0.28334000  0.29340000  1.0
  C  C136  1  0.76206000  0.28466000  0.32930000  1.0
  C  C137  1  0.72876000  0.24540000  0.32237000  1.0
  C  C138  1  0.68536000  0.30992000  0.34394000  1.0
  C  C139  1  0.84680000  0.30114000  0.35817000  1.0
  C  C140  1  0.56486000  0.90703000  0.27998000  1.0
  C  C141  1  0.59082000  0.93876000  0.32040000  1.0
  C  C142  1  0.62938000  0.97473000  0.32115000  1.0
  C  C143  1  0.66388000  0.92691000  0.33962000  1.0
  C  C144  1  0.50592000  0.94683000  0.34155000  1.0
  C  C145  1  0.89902000  0.67335500  0.04584500  1.0
  C  C146  1  0.87710000  0.63239000  0.01499000  1.0
  C  C147  1  0.84184000  0.63087000  0.97853000  1.0
  C  C148  1  0.80316000  0.61302000  0.02624000  1.0
  C  C149  1  0.96346000  0.61211000  0.00863000  1.0
  C  C150  1  0.52154000  0.53645000  0.57982000  1.0
  C  C151  1  0.58748000  0.55807000  0.59594000  1.0
  C  C152  1  0.29226000  0.94767000  0.58402000  1.0
  C  C153  1  0.34954000  0.95531000  0.60916000  1.0
  C  C154  1  0.72684000  0.36629000  0.00504500  1.0
  C  C155  1  0.79282000  0.35302000  0.00904000  1.0
  C  C156  1  0.54398000  0.35590000  0.40442000  1.0
  C  C157  1  0.60012000  0.33552000  0.39022000  1.0
  C  C158  1  0.35158000  0.93176000  0.38759000  1.0
  C  C159  1  0.40722000  0.92502000  0.36629000  1.0
  C  C160  1  0.65536000  0.54324000  0.01353000  1.0
  C  C161  1  0.71718000  0.55991000  0.00876500  1.0
  C  C162  1  0.73934000  0.94149500  0.58221000  1.0
  C  C163  1  0.67354000  0.93661500  0.59500500  1.0
  C  C164  1  0.17591000  0.36614000  0.00243000  1.0
  C  C165  1  0.11900000  0.34067000  0.99435000  1.0
  C  C166  1  0.00654000  0.37001000  0.41433000  1.0
  C  C167  1  0.94374000  0.35255000  0.39143000  1.0
  C  C168  1  0.81294000  0.93943000  0.40883000  1.0
  C  C169  1  0.75216000  0.94459000  0.39205000  1.0
  C  C170  1  0.11558000  0.56583000  0.02407500  1.0
  C  C171  1  0.05976000  0.58721000  0.03105000  1.0
  C  C172  1  0.98448000  0.55437000  0.60181000  1.0
  C  C173  1  0.93112000  0.56968500  0.62316500  1.0
  C  C174  1  0.74502000  0.66157000  0.79056000  1.0
  C  C175  1  0.77478000  0.65475000  0.82074000  1.0
  C  C176  1  0.82278000  0.62479000  0.81397000  1.0
  C  C177  1  0.85310000  0.61875000  0.84250000  1.0
  C  C178  1  0.83608000  0.64240000  0.87863000  1.0
  C  C179  1  0.78698000  0.67235000  0.88519500  1.0
  C  C180  1  0.75756000  0.67858000  0.85658000  1.0
  C  C181  1  0.87224000  0.63526000  0.90832000  1.0
  C  C182  1  0.74812000  0.74281000  0.69099500  1.0
  C  C183  1  0.69204000  0.77165000  0.69324000  1.0
  C  C184  1  0.59756000  0.76511000  0.68820000  1.0
  C  C185  1  0.54522000  0.79088000  0.68648000  1.0
  C  C186  1  0.58608000  0.82398000  0.69033000  1.0
  C  C187  1  0.68054000  0.83107000  0.69669000  1.0
  C  C188  1  0.73290000  0.80506000  0.69788000  1.0
  C  C189  1  0.53032000  0.84938500  0.68480500  1.0
  C  C190  1  0.65028000  0.03476000  0.78520500  1.0
  C  C191  1  0.69472000  0.07193000  0.81280000  1.0
  C  C192  1  0.69582000  0.10195000  0.80637500  1.0
  C  C193  1  0.73596000  0.13681000  0.83309000  1.0
  C  C194  1  0.77569000  0.14287000  0.86716500  1.0
  C  C195  1  0.77578000  0.11251000  0.87324000  1.0
  C  C196  1  0.73586000  0.07764000  0.84645000  1.0
  C  C197  1  0.80818000  0.18137000  0.89651000  1.0
  C  C198  1  0.77922000  0.24510000  0.20922000  1.0
  C  C199  1  0.81732000  0.25264000  0.18149000  1.0
  C  C200  1  0.85344000  0.28830000  0.19066000  1.0
  C  C201  1  0.89254000  0.29494000  0.16485000  1.0
  C  C202  1  0.89641000  0.26617000  0.12917000  1.0
  C  C203  1  0.86087000  0.23038000  0.12009000  1.0
  C  C204  1  0.82200000  0.22374000  0.14601000  1.0
  C  C205  1  0.94038000  0.27399000  0.10253000  1.0
  C  C206  1  0.78278000  0.16607000  0.30538000  1.0
  C  C207  1  0.73460000  0.13395000  0.30516000  1.0
  C  C208  1  0.64734000  0.13579000  0.31574000  1.0
  C  C209  1  0.60417000  0.10686000  0.31869000  1.0
  C  C210  1  0.64652000  0.07514000  0.31044000  1.0
  C  C211  1  0.73320000  0.07293000  0.29894000  1.0
  C  C212  1  0.77712000  0.10226000  0.29666000  1.0
  C  C213  1  0.60084000  0.04561000  0.31556000  1.0
  C  C214  1  0.70650000  0.86600000  0.22213000  1.0
  C  C215  1  0.72074000  0.83148000  0.18908000  1.0
  C  C216  1  0.65146000  0.80241000  0.17094000  1.0
  C  C217  1  0.66694000  0.76958000  0.14063000  1.0
  C  C218  1  0.75199000  0.76488000  0.12762000  1.0
  C  C219  1  0.82124000  0.79417000  0.14574000  1.0
  C  C220  1  0.80562000  0.82704000  0.17608000  1.0
  C  C221  1  0.76600000  0.72918000  0.09555000  1.0
  H  H222  1  0.05444000  0.49755000  0.60299000  1.0
  H  H223  1  0.36188000  0.44879000  0.43495000  1.0
  H  H224  1  0.35046000  0.38745000  0.49098000  1.0
  H  H225  1  0.05926000  0.56180000  0.54816000  1.0
  H  H226  1  0.02322000  0.41497000  0.38645000  1.0
  H  H227  1  0.11664000  0.47336000  0.39366000  1.0
  H  H228  1  0.11988000  0.34661000  0.51586000  1.0
  H  H229  1  0.02498000  0.34025000  0.45816000  1.0
  H  H230  1  0.21076000  0.42523000  0.61418000  1.0
  H  H231  1  0.21804000  0.38789000  0.64534000  1.0
  H  H232  1  0.32058000  0.30284000  0.55482000  1.0
  H  H233  1  0.31666000  0.33863000  0.52204000  1.0
  H  H234  1  0.47406000  0.41162000  0.39846000  1.0
  H  H235  1  0.16038000  0.46033000  0.56384000  1.0
  H  H236  1  0.16452000  0.52289000  0.50901000  1.0
  H  H237  1  0.45980000  0.34950000  0.45538000  1.0
  H  H238  1  0.50008000  0.49344000  0.61066000  1.0
  H  H239  1  0.40294000  0.43626000  0.60509000  1.0
  H  H240  1  0.39856000  0.56266000  0.48252000  1.0
  H  H241  1  0.49706000  0.56777000  0.53856000  1.0
  H  H242  1  0.30892000  0.48450000  0.38539000  1.0
  H  H243  1  0.20098000  0.57136000  0.47661000  1.0
  H  H244  1  0.30430000  0.52170000  0.35405000  1.0
  H  H245  1  0.19974000  0.60703000  0.44367000  1.0
  H  H246  1  0.25782000  0.87660000  0.39001500  1.0
  H  H247  1  0.96309000  0.00189000  0.55491000  1.0
  H  H248  1  0.94656000  0.88568000  0.50533000  1.0
  H  H249  1  0.29084000  0.99451000  0.43878000  1.0
  H  H250  1  0.29866000  0.01905000  0.60612000  1.0
  H  H251  1  0.22520000  0.06789000  0.59470000  1.0
  H  H252  1  0.15645000  0.82099500  0.48486500  1.0
  H  H253  1  0.25782000  0.87363000  0.54188000  1.0
  H  H254  1  0.07524000  0.79773000  0.38350000  1.0
  H  H255  1  0.04366000  0.72993000  0.35376000  1.0
  H  H256  1  0.92916000  0.73816000  0.44636000  1.0
  H  H257  1  0.95702000  0.80615000  0.47777000  1.0
  H  H258  1  0.83540000  0.00218500  0.58831000  1.0
  H  H259  1  0.14655000  0.88153000  0.43049000  1.0
  H  H260  1  0.17840000  0.99781000  0.47952000  1.0
  H  H261  1  0.82138000  0.88430500  0.53772500  1.0
  H  H262  1  0.81194000  0.86652000  0.38286000  1.0
  H  H263  1  0.88907000  0.81696000  0.39237000  1.0
  H  H264  1  0.95882000  0.06371000  0.50295500  1.0
  H  H265  1  0.85334000  0.01175000  0.44802000  1.0
  H  H266  1  0.03510000  0.08389000  0.60201500  1.0
  H  H267  1  0.15659000  0.08138000  0.51068000  1.0
  H  H268  1  0.05116000  0.15193000  0.63218000  1.0
  H  H269  1  0.16884000  0.14946000  0.54243000  1.0
  H  H270  1  0.21049000  0.56165500  0.07766500  1.0
  H  H271  1  0.50047000  0.39629000  0.94848500  1.0
  H  H272  1  0.52388000  0.44470000  0.06400500  1.0
  H  H273  1  0.17517000  0.51549000  0.96075500  1.0
  H  H274  1  0.16759000  0.34548500  0.93179000  1.0
  H  H275  1  0.23975000  0.35836500  0.88388000  1.0
  H  H276  1  0.31332000  0.46363500  0.12897000  1.0
  H  H277  1  0.21120000  0.40705500  0.07610000  1.0
  H  H278  1  0.39254000  0.56632000  0.15331000  1.0
  H  H279  1  0.42223000  0.59548000  0.22072000  1.0
  H  H280  1  0.53747000  0.50217500  0.21186500  1.0
  H  H281  1  0.51151000  0.47133500  0.14425000  1.0
  H  H282  1  0.62726000  0.36164000  0.94618000  1.0
  H  H283  1  0.32177000  0.52049500  0.07117000  1.0
  H  H284  1  0.28781000  0.47400500  0.95585000  1.0
  H  H285  1  0.64878000  0.41101500  0.06339500  1.0
  H  H286  1  0.65602000  0.56859500  0.08589000  1.0
  H  H287  1  0.57963000  0.55782500  0.13458000  1.0
  H  H288  1  0.50614000  0.45135000  0.88953000  1.0
  H  H289  1  0.61268000  0.50575000  0.94168000  1.0
  H  H290  1  0.43021000  0.35105500  0.86800500  1.0
  H  H291  1  0.30894000  0.44361000  0.87191000  1.0
  H  H292  1  0.41441000  0.32159000  0.80042000  1.0
  H  H293  1  0.29696000  0.41253000  0.80424500  1.0
  H  H294  1  0.70200000  0.56570000  0.64821000  1.0
  H  H295  1  0.61750000  0.59729500  0.66291500  1.0
  H  H296  1  0.82406000  0.61114000  0.62106000  1.0
  H  H297  1  0.89354000  0.63842000  0.66416000  1.0
  H  H298  1  0.83190000  0.65202000  0.72360000  1.0
  H  H299  1  0.79942000  0.60384500  0.70625500  1.0
  H  H300  1  0.64648000  0.65894000  0.67643000  1.0
  H  H301  1  0.72038000  0.65764000  0.64391000  1.0
  H  H302  1  0.58572000  0.98412000  0.64454500  1.0
  H  H303  1  0.67040000  0.96509000  0.66082000  1.0
  H  H304  1  0.43482000  0.91273500  0.61866500  1.0
  H  H305  1  0.38612000  0.93560500  0.66113500  1.0
  H  H306  1  0.48401000  0.97721000  0.72012500  1.0
  H  H307  1  0.52286000  0.00701000  0.70309500  1.0
  H  H308  1  0.63410000  0.91869000  0.67673000  1.0
  H  H309  1  0.54798000  0.88935000  0.64048000  1.0
  H  H310  1  0.88292000  0.30265500  0.96208500  1.0
  H  H311  1  0.79762000  0.28685500  0.98122500  1.0
  H  H312  1  0.02893000  0.33128000  0.03563000  1.0
  H  H313  1  0.08108000  0.28925000  0.01444500  1.0
  H  H314  1  0.98848000  0.22915000  0.97302500  1.0
  H  H315  1  0.95339000  0.24492500  0.94153000  1.0
  H  H316  1  0.83334000  0.26769000  0.02581000  1.0
  H  H317  1  0.90659000  0.30871000  0.05622000  1.0
  H  H318  1  0.70798000  0.33780000  0.34807000  1.0
  H  H319  1  0.62510000  0.29826000  0.32306000  1.0
  H  H320  1  0.83030000  0.30147000  0.38384000  1.0
  H  H321  1  0.90204000  0.28337000  0.34741000  1.0
  H  H322  1  0.84775000  0.26825000  0.28470000  1.0
  H  H323  1  0.80602000  0.31204000  0.29900000  1.0
  H  H324  1  0.65644000  0.23874000  0.31086000  1.0
  H  H325  1  0.73290000  0.24509000  0.34880000  1.0
  H  H326  1  0.63760000  0.90063000  0.33830000  1.0
  H  H327  1  0.72460000  0.92191000  0.32449000  1.0
  H  H328  1  0.52550000  0.97048000  0.36975000  1.0
  H  H329  1  0.45404000  0.95526000  0.32764000  1.0
  H  H330  1  0.49299000  0.90662000  0.27105000  1.0
  H  H331  1  0.57118000  0.87984000  0.27846000  1.0
  H  H332  1  0.69676000  0.97072000  0.31073000  1.0
  H  H333  1  0.63934000  0.99800000  0.34974000  1.0
  H  H334  1  0.82692000  0.61559000  0.05319000  1.0
  H  H335  1  0.74118000  0.62733000  0.02940000  1.0
  H  H336  1  0.94636000  0.58381000  0.98467500  1.0
  H  H337  1  0.01646000  0.62676000  0.00143000  1.0
  H  H338  1  0.96584000  0.68480000  0.04344000  1.0
  H  H339  1  0.90316000  0.67479000  0.07313000  1.0
  H  H340  1  0.77468000  0.64154000  0.98124000  1.0
  H  H341  1  0.83216000  0.60190000  0.95584500  1.0
  H  H342  1  0.70351000  0.60645000  0.75286000  1.0
  H  H343  1  0.82824000  0.68073000  0.95289000  1.0
  H  H344  1  0.83884000  0.60641000  0.78667500  1.0
  H  H345  1  0.89094000  0.59555500  0.83607500  1.0
  H  H346  1  0.77074000  0.69138000  0.91209500  1.0
  H  H347  1  0.72040000  0.70186000  0.86243000  1.0
  H  H348  1  0.66830000  0.72481000  0.71935500  1.0
  H  H349  1  0.61046000  0.89793500  0.72206500  1.0
  H  H350  1  0.56402000  0.73942500  0.68405500  1.0
  H  H351  1  0.47266000  0.78462000  0.68152500  1.0
  H  H352  1  0.71452000  0.85599000  0.69923500  1.0
  H  H353  1  0.80556000  0.81087000  0.70192000  1.0
  H  H354  1  0.67300000  0.03979500  0.73919500  1.0
  H  H355  1  0.87471000  0.16875500  0.93403500  1.0
  H  H356  1  0.66346000  0.09897500  0.78117000  1.0
  H  H357  1  0.73380000  0.15929000  0.82721000  1.0
  H  H358  1  0.80404000  0.11525000  0.89884000  1.0
  H  H359  1  0.73688000  0.05507000  0.85225000  1.0
  H  H360  1  0.72601000  0.29531000  0.23724000  1.0
  H  H361  1  0.87188000  0.22933000  0.05501000  1.0
  H  H362  1  0.85380000  0.31106000  0.21808000  1.0
  H  H363  1  0.92008000  0.32275000  0.17296500  1.0
  H  H364  1  0.86474000  0.20719000  0.09336000  1.0
  H  H365  1  0.79572000  0.19588000  0.13826500  1.0
  H  H366  1  0.67754000  0.17436000  0.27617000  1.0
  H  H367  1  0.65504000  0.00187000  0.27353500  1.0
  H  H368  1  0.61364000  0.16017000  0.32296000  1.0
  H  H369  1  0.53762000  0.10945000  0.32771000  1.0
  H  H370  1  0.76844000  0.04915000  0.29279000  1.0
  H  H371  1  0.84440000  0.10023000  0.28835000  1.0
  H  H372  1  0.57122000  0.86627000  0.20612000  1.0
  H  H373  1  0.88066000  0.74811000  0.08059000  1.0
  H  H374  1  0.58566000  0.80456000  0.18053000  1.0
  H  H375  1  0.61180000  0.74778000  0.12743000  1.0
  H  H376  1  0.88814000  0.79190000  0.13726000  1.0
  H  H377  1  0.86024000  0.84908000  0.18937000  1.0
  Mn  Mn378  1  0.25920000  0.45484000  0.49946000  1.0
  Mn  Mn379  1  0.05928000  0.94220000  0.49300000  1.0
  Mn  Mn380  1  0.40800000  0.45847000  0.00944000  1.0
  N  N381  1  0.34846000  0.42125000  0.46604000  1.0
  N  N382  1  0.33410000  0.45957000  0.54379000  1.0
  N  N383  1  0.33339667  0.49958000  0.50438000  1.0
  N  N384  1  0.26952000  0.34380000  0.60144000  1.0
  N  N385  1  0.17014000  0.48847000  0.53322000  1.0
  N  N386  1  0.18472000  0.45010000  0.45511000  1.0
  N  N387  1  0.18476000  0.40997000  0.49440000  1.0
  N  N388  1  0.25182000  0.56591000  0.39748000  1.0
  N  N389  1  0.96286000  0.94369000  0.52678000  1.0
  N  N390  1  0.97838000  0.90175000  0.44964000  1.0
  N  N391  1  0.00046000  0.98043000  0.48495000  1.0
  N  N392  1  0.98552000  0.73114000  0.39882000  1.0
  N  N393  1  0.15472000  0.93997000  0.45844000  1.0
  N  N394  1  0.13956000  0.98274000  0.53647000  1.0
  N  N395  1  0.11846000  0.90410000  0.50134000  1.0
  N  N396  1  0.11072000  0.15360500  0.58865000  1.0
  N  N397  1  0.50422000  0.42389500  0.00647500  1.0
  N  N398  1  0.48966000  0.50145000  0.05005500  1.0
  N  N399  1  0.46576000  0.46768000  0.97192000  1.0
  N  N400  1  0.48073000  0.55005000  0.21918000  1.0
  N  N401  1  0.31262000  0.49377000  0.01309000  1.0
  N  N402  1  0.32684000  0.41544000  0.96874000  1.0
  N  N403  1  0.35005000  0.44896000  0.04684000  1.0
  N  N404  1  0.35495000  0.36574000  0.79944000  1.0
  N  N405  1  0.71568000  0.63312000  0.75683000  1.0
  N  N406  1  0.86230000  0.65746000  0.94409500  1.0
  N  N407  1  0.72238000  0.71973000  0.70366000  1.0
  N  N408  1  0.55650000  0.88605000  0.70138500  1.0
  N  N409  1  0.64502000  0.02295000  0.74876000  1.0
  N  N410  1  0.85165000  0.18927500  0.92935500  1.0
  N  N411  1  0.73980000  0.27105000  0.23708000  1.0
  N  N412  1  0.91946000  0.25243000  0.06584000  1.0
  N  N413  1  0.74004000  0.18537000  0.29198000  1.0
  N  N414  1  0.61510000  0.00990000  0.29503500  1.0
  N  N415  1  0.62510000  0.87912000  0.22675000  1.0
  N  N416  1  0.83444000  0.72573000  0.07487000  1.0
  O  O417  1  0.69930000  0.63859500  0.72772500  1.0
  O  O418  1  0.76986000  0.69115000  0.69839500  1.0
  O  O419  1  0.66024000  0.58345000  0.61191000  1.0
  O  O420  1  0.87068000  0.58293500  0.64778500  1.0
  O  O421  1  0.62246000  0.98664000  0.72427000  1.0
  O  O422  1  0.51094000  0.90841500  0.69262500  1.0
  O  O423  1  0.60088000  0.92966000  0.60904500  1.0
  O  O424  1  0.41494000  0.96825000  0.63784000  1.0
  O  O425  1  0.85073000  0.22317500  0.95893000  1.0
  O  O426  1  0.96124000  0.26004000  0.04206000  1.0
  O  O427  1  0.86661000  0.33933500  0.01577500  1.0
  O  O428  1  0.05422000  0.31163000  0.98092000  1.0
  O  O429  1  0.71564000  0.26591000  0.26510000  1.0
  O  O430  1  0.77870000  0.21836000  0.29758000  1.0
  O  O431  1  0.66338000  0.31207000  0.37699000  1.0
  O  O432  1  0.87346000  0.33710000  0.36496000  1.0
  O  O433  1  0.61698000  0.91252000  0.25580000  1.0
  O  O434  1  0.56994000  0.98328000  0.29952500  1.0
  O  O435  1  0.68550000  0.95454000  0.37643000  1.0
  O  O436  1  0.47022000  0.91524500  0.34250500  1.0
  O  O437  1  0.83342000  0.69456000  0.04222000  1.0
  O  O438  1  0.90456000  0.65172000  0.97025000  1.0
  O  O439  1  0.78532000  0.57556000  0.99953000  1.0
  O  O440  1  0.99607000  0.61085000  0.04023000  1.0
  O  O441  1  0.74872000  0.69550500  0.79632500  1.0
  O  O442  1  0.91796000  0.60685000  0.89968000  1.0
  O  O443  1  0.82398000  0.73940000  0.67614500  1.0
  O  O444  1  0.45524000  0.83585500  0.66246500  1.0
  O  O445  1  0.62300000  0.01156500  0.79625000  1.0
  O  O446  1  0.78608000  0.20885000  0.89174500  1.0
  O  O447  1  0.78598000  0.21301000  0.20730000  1.0
  O  O448  1  0.99930000  0.30329000  0.11493000  1.0
  O  O449  1  0.86730000  0.17658000  0.31969000  1.0
  O  O450  1  0.54294000  0.05418000  0.33990000  1.0
  O  O451  1  0.77574000  0.88550000  0.24649000  1.0
  O  O452  1  0.70600000  0.70057000  0.08521500  1.0
