# generated using pymatgen
data_SiGe8H68C76(S3Cl2)4
_symmetry_space_group_name_H-M   'P 1'
_cell_length_a   21.84345000
_cell_length_b   36.79640000
_cell_length_c   38.23200000
_cell_angle_alpha   90.01200000
_cell_angle_beta   92.43700000
_cell_angle_gamma   91.79600000
_symmetry_Int_Tables_number   1
_chemical_formula_structural   SiGe8H68C76(S3Cl2)4
_chemical_formula_sum   'Si4 Ge32 H272 C304 S48 Cl32'
_cell_volume   30686.45371740
_cell_formula_units_Z   4
loop_
 _symmetry_equiv_pos_site_id
 _symmetry_equiv_pos_as_xyz
  1  'x, y, z'
loop_
 _atom_site_type_symbol
 _atom_site_label
 _atom_site_symmetry_multiplicity
 _atom_site_fract_x
 _atom_site_fract_y
 _atom_site_fract_z
 _atom_site_occupancy
  C  C0  1  0.48026000  0.02354000  0.01369000  1.0
  C  C1  1  0.40297000  0.96971000  0.05268500  1.0
  C  C2  1  0.54090000  0.09118500  0.02680000  1.0
  C  C3  1  0.49294000  0.94345000  0.99936000  1.0
  C  C4  1  0.27390000  0.98928000  0.92714500  1.0
  C  C5  1  0.26350000  0.97839500  0.96163000  1.0
  C  C6  1  0.31234000  0.97464000  0.98588000  1.0
  C  C7  1  0.48138000  0.08954000  0.01131000  1.0
  C  C8  1  0.37280000  0.98221000  0.97639000  1.0
  C  C9  1  0.35590000  0.92693500  0.09258000  1.0
  C  C10  1  0.53246000  0.93063500  0.02612000  1.0
  C  C11  1  0.34565000  0.99166000  0.10101500  1.0
  C  C12  1  0.45132000  0.05596000  0.00474000  1.0
  C  C13  1  0.54982000  0.91062500  0.95682000  1.0
  C  C14  1  0.33456000  0.99624000  0.91744000  1.0
  C  C15  1  0.33132000  0.95578000  0.11092000  1.0
  C  C16  1  0.38348000  0.99347000  0.94207500  1.0
  C  C17  1  0.38104000  0.99857000  0.07206500  1.0
  C  C18  1  0.59251000  0.90052500  0.98328000  1.0
  C  C19  1  0.58198000  0.90955000  0.01816000  1.0
  C  C20  1  0.57023000  0.05874000  0.03498000  1.0
  C  C21  1  0.54020000  0.02523500  0.02849500  1.0
  C  C22  1  0.50060000  0.93218500  0.96478000  1.0
  C  C23  1  0.39097000  0.93384000  0.06342500  1.0
  C  C24  1  0.20025000  0.51627000  0.95716000  1.0
  C  C25  1  0.28252000  0.46542500  0.91802000  1.0
  C  C26  1  0.14068000  0.58314000  0.95625000  1.0
  C  C27  1  0.17853000  0.43665000  0.96560000  1.0
  C  C28  1  0.37322000  0.47856500  0.05752000  1.0
  C  C29  1  0.33884000  0.44635000  0.05015000  1.0
  C  C30  1  0.29988000  0.44377500  0.02017000  1.0
  C  C31  1  0.15078000  0.56499500  0.92484000  1.0
  C  C32  1  0.29448000  0.47349500  0.99740000  1.0
  C  C33  1  0.28333000  0.45820000  0.85485000  1.0
  C  C34  1  0.14119000  0.43997000  0.99433000  1.0
  C  C35  1  0.37914000  0.46541000  0.88871000  1.0
  C  C36  1  0.18068000  0.53194000  0.92528000  1.0
  C  C37  1  0.11763000  0.38345500  0.94641000  1.0
  C  C38  1  0.36838000  0.50796500  0.03425500  1.0
  C  C39  1  0.34758000  0.46093000  0.85624000  1.0
  C  C40  1  0.32984000  0.50532000  0.00431000  1.0
  C  C41  1  0.34689000  0.46762500  0.91935500  1.0
  C  C42  1  0.07847000  0.38780000  0.97424000  1.0
  C  C43  1  0.09191000  0.41558000  0.99879000  1.0
  C  C44  1  0.15931000  0.56714000  0.98812000  1.0
  C  C45  1  0.18850000  0.53397000  0.98857000  1.0
  C  C46  1  0.16753000  0.40756500  0.94225000  1.0
  C  C47  1  0.25107000  0.46014500  0.88555000  1.0
  C  C48  1  0.05681000  0.53255500  0.51998000  1.0
  C  C49  1  0.97640000  0.47364500  0.55313000  1.0
  C  C50  1  0.13102000  0.59597500  0.52924000  1.0
  C  C51  1  0.07123000  0.45692000  0.49563000  1.0
  C  C52  1  0.85458000  0.49776000  0.42786000  1.0
  C  C53  1  0.86954000  0.52683000  0.45074000  1.0
  C  C54  1  0.91848000  0.52453000  0.47522000  1.0
  C  C55  1  0.09822000  0.58956000  0.49744000  1.0
  C  C56  1  0.95350000  0.49324000  0.47698000  1.0
  C  C57  1  0.98190000  0.45190500  0.61324000  1.0
  C  C58  1  0.10663000  0.46894000  0.46793000  1.0
  C  C59  1  0.88512000  0.47100000  0.58736000  1.0
  C  C60  1  0.06169000  0.55796000  0.49276000  1.0
  C  C61  1  0.12194000  0.39903000  0.49482000  1.0
  C  C62  1  0.89065000  0.46686000  0.42897000  1.0
  C  C63  1  0.91920000  0.45812000  0.61639000  1.0
  C  C64  1  0.93957000  0.46452500  0.45353000  1.0
  C  C65  1  0.91340000  0.47875000  0.55612000  1.0
  C  C66  1  0.15724000  0.41126000  0.46702000  1.0
  C  C67  1  0.14937000  0.44645000  0.45390000  1.0
  C  C68  1  0.12610000  0.57082000  0.55655000  1.0
  C  C69  1  0.08910000  0.53934000  0.55198000  1.0
  C  C70  1  0.07857000  0.42164500  0.50883000  1.0
  C  C71  1  0.01034000  0.45969500  0.58181000  1.0
  C  C72  1  0.70905000  0.03391000  0.49648500  1.0
  C  C73  1  0.77782000  0.98423000  0.45126000  1.0
  C  C74  1  0.62133000  0.08779000  0.48624500  1.0
  C  C75  1  0.71480000  0.95496000  0.51657000  1.0
  C  C76  1  0.93949000  0.00890500  0.56661000  1.0
  C  C77  1  0.91007000  0.03957500  0.55285500  1.0
  C  C78  1  0.85583000  0.03545500  0.53209500  1.0
  C  C79  1  0.67507000  0.08899000  0.46736000  1.0
  C  C80  1  0.83099000  0.00061500  0.52449000  1.0
  C  C81  1  0.74682000  0.98349000  0.38957000  1.0
  C  C82  1  0.71568000  0.95136000  0.55309000  1.0
  C  C83  1  0.85310000  0.97489500  0.40746000  1.0
  C  C84  1  0.71865000  0.06215000  0.47242000  1.0
  C  C85  1  0.63853000  0.90550000  0.51147000  1.0
  C  C86  1  0.91477000  0.97414000  0.55836000  1.0
  C  C87  1  0.80752000  0.97793500  0.38073000  1.0
  C  C88  1  0.86138000  0.97004500  0.53731000  1.0
  C  C89  1  0.83833000  0.97791500  0.44251000  1.0
  C  C90  1  0.63877000  0.90240000  0.54810000  1.0
  C  C91  1  0.67813000  0.92535000  0.56868000  1.0
  C  C92  1  0.61379000  0.06089000  0.51184000  1.0
  C  C93  1  0.65719000  0.03417000  0.51689500  1.0
  C  C94  1  0.67657000  0.93155500  0.49577000  1.0
  C  C95  1  0.73208000  0.98654000  0.42457000  1.0
  C  C96  1  0.96424000  0.80446000  0.82112500  1.0
  C  C97  1  0.83802000  0.84977500  0.97447000  1.0
  C  C98  1  0.04283000  0.72576000  0.97403000  1.0
  C  C99  1  0.75749000  0.68775000  0.89518000  1.0
  C  C100  1  0.78464000  0.46946000  0.19822000  1.0
  C  C101  1  0.49286000  0.52418500  0.18792500  1.0
  C  C102  1  0.63226000  0.51485500  0.34235000  1.0
  C  C103  1  0.54840000  0.35834000  0.25729500  1.0
  C  C104  1  0.22534000  0.75011500  0.70544000  1.0
  C  C105  1  0.45980000  0.84398500  0.63906000  1.0
  C  C106  1  0.29556000  0.72273000  0.53668500  1.0
  C  C107  1  0.48275000  0.66066500  0.66711000  1.0
  C  C108  1  0.03457000  0.05534500  0.10872500  1.0
  C  C109  1  0.15727000  0.93534000  0.22050500  1.0
  C  C110  1  0.86228000  0.97790500  0.23363000  1.0
  C  C111  1  0.08641000  0.10329000  0.28073500  1.0
  C  C112  1  0.53573000  0.23364000  0.31510500  1.0
  C  C113  1  0.36863000  0.35261000  0.40552000  1.0
  C  C114  1  0.42303000  0.18855000  0.47361500  1.0
  C  C115  1  0.22931000  0.20304500  0.33132000  1.0
  C  C116  1  0.25668000  0.87428500  0.76660000  1.0
  C  C117  1  0.15506000  0.00927000  0.66085500  1.0
  C  C118  1  0.06663000  0.99627000  0.82679500  1.0
  C  C119  1  0.95641000  0.87323500  0.70476000  1.0
  C  C120  1  0.83706000  0.34482000  0.15114000  1.0
  C  C121  1  0.86312000  0.29135000  0.97951000  1.0
  C  C122  1  0.62996000  0.23317000  0.07509500  1.0
  C  C123  1  0.92307000  0.17546000  0.11489000  1.0
  C  C124  1  0.66519000  0.57931500  0.64678000  1.0
  C  C125  1  0.78401000  0.44287500  0.74332000  1.0
  C  C126  1  0.47892000  0.46207500  0.72749500  1.0
  C  C127  1  0.65442000  0.58427500  0.82520500  1.0
  C  C128  1  0.65063000  0.88321000  0.97499000  1.0
  C  C129  1  0.69252000  0.90007500  0.95245500  1.0
  C  C130  1  0.75162000  0.88687500  0.95043000  1.0
  C  C131  1  0.77072000  0.85766500  0.97132000  1.0
  C  C132  1  0.72773000  0.83930000  0.99203000  1.0
  C  C133  1  0.66825000  0.85206500  0.99361000  1.0
  C  C134  1  0.40902000  0.48330500  0.09110000  1.0
  C  C135  1  0.46993000  0.49730500  0.09234000  1.0
  C  C136  1  0.49776000  0.50853500  0.12431000  1.0
  C  C137  1  0.46588000  0.50581500  0.15536000  1.0
  C  C138  1  0.40750000  0.48827000  0.15460500  1.0
  C  C139  1  0.37940000  0.47743500  0.12258000  1.0
  C  C140  1  0.17292000  0.62801000  0.53307000  1.0
  C  C141  1  0.15102000  0.66252000  0.54059000  1.0
  C  C142  1  0.19152000  0.69274000  0.54212500  1.0
  C  C143  1  0.25400000  0.68918000  0.53581000  1.0
  C  C144  1  0.27597000  0.65432500  0.52886500  1.0
  C  C145  1  0.23542000  0.62411000  0.52764000  1.0
  C  C146  1  0.82352000  0.97775500  0.34356000  1.0
  C  C147  1  0.85157000  0.94794500  0.32844000  1.0
  C  C148  1  0.86465000  0.94871500  0.29295000  1.0
  C  C149  1  0.84955000  0.97873000  0.27198000  1.0
  C  C150  1  0.82285000  0.00891500  0.28735000  1.0
  C  C151  1  0.80983000  0.00812000  0.32280000  1.0
  C  C152  1  0.11074000  0.61871000  0.95639000  1.0
  C  C153  1  0.13470000  0.64912000  0.93844000  1.0
  C  C154  1  0.10953000  0.68323000  0.94280000  1.0
  C  C155  1  0.06156000  0.68786000  0.96552000  1.0
  C  C156  1  0.03556000  0.65715000  0.98202000  1.0
  C  C157  1  0.06014000  0.62298000  0.97730000  1.0
  C  C158  1  0.80016000  0.49964500  0.40367000  1.0
  C  C159  1  0.75046000  0.47443000  0.40557000  1.0
  C  C160  1  0.69732000  0.47909500  0.38458000  1.0
  C  C161  1  0.69232000  0.50896500  0.36194000  1.0
  C  C162  1  0.74304000  0.53328500  0.35894000  1.0
  C  C163  1  0.79622000  0.52858000  0.37988000  1.0
  C  C164  1  0.59244000  0.87935000  0.56550000  1.0
  C  C165  1  0.60919000  0.85559500  0.59295000  1.0
  C  C166  1  0.56464000  0.84197500  0.61509000  1.0
  C  C167  1  0.50328000  0.85183000  0.61033000  1.0
  C  C168  1  0.48554000  0.87206000  0.58045500  1.0
  C  C169  1  0.53014000  0.88575000  0.55839000  1.0
  C  C170  1  0.28842000  0.94877500  0.13931500  1.0
  C  C171  1  0.23369000  0.92791500  0.13338500  1.0
  C  C172  1  0.19287000  0.92314000  0.16029000  1.0
  C  C173  1  0.20496000  0.93925000  0.19325500  1.0
  C  C174  1  0.25928000  0.96056500  0.19905000  1.0
  C  C175  1  0.30054000  0.96499000  0.17223500  1.0
  C  C176  1  0.20503000  0.38875000  0.45245000  1.0
  C  C177  1  0.20517000  0.38124000  0.41631000  1.0
  C  C178  1  0.25741000  0.36746000  0.40189000  1.0
  C  C179  1  0.31007000  0.36096000  0.42299500  1.0
  C  C180  1  0.30777000  0.36520000  0.45962000  1.0
  C  C181  1  0.25547000  0.37912000  0.47403500  1.0
  C  C182  1  0.99645000  0.01239500  0.58913000  1.0
  C  C183  1  0.99970000  0.03340500  0.62006500  1.0
  C  C184  1  0.05263000  0.03334500  0.64202500  1.0
  C  C185  1  0.10259000  0.01210000  0.63412500  1.0
  C  C186  1  0.09935000  0.99114500  0.60317500  1.0
  C  C187  1  0.04701000  0.99179500  0.58088000  1.0
  C  C188  1  0.56976000  0.12652500  0.03786000  1.0
  C  C189  1  0.57821000  0.15536500  0.01414500  1.0
  C  C190  1  0.60016000  0.18936000  0.02645500  1.0
  C  C191  1  0.61350000  0.19525500  0.06231500  1.0
  C  C192  1  0.60846000  0.16579500  0.08570500  1.0
  C  C193  1  0.58665000  0.13185500  0.07338000  1.0
  C  C194  1  0.38148000  0.46085000  0.82363000  1.0
  C  C195  1  0.42330000  0.43366500  0.81671500  1.0
  C  C196  1  0.45456000  0.43456500  0.78554000  1.0
  C  C197  1  0.44466000  0.46224500  0.76084000  1.0
  C  C198  1  0.40389000  0.48995500  0.76823000  1.0
  C  C199  1  0.37227000  0.48885000  0.79927000  1.0
  C  C200  1  0.57222000  0.11395000  0.47905000  1.0
  C  C201  1  0.51244000  0.10186000  0.46833500  1.0
  C  C202  1  0.46525000  0.12662500  0.46533000  1.0
  C  C203  1  0.47643000  0.16358000  0.47303500  1.0
  C  C204  1  0.53707000  0.17606000  0.48144500  1.0
  C  C205  1  0.58436000  0.15124000  0.48443500  1.0
  C  C206  1  0.22118000  0.99190000  0.90144500  1.0
  C  C207  1  0.21287000  0.02267500  0.87988000  1.0
  C  C208  1  0.16255000  0.02366500  0.85601500  1.0
  C  C209  1  0.11861000  0.99499000  0.85396500  1.0
  C  C210  1  0.12594000  0.96470000  0.87616500  1.0
  C  C211  1  0.17712000  0.96321000  0.89925500  1.0
  C  C212  1  0.02357000  0.36346000  0.97734500  1.0
  C  C213  1  0.96436000  0.37735000  0.97964000  1.0
  C  C214  1  0.91345000  0.35352000  0.98111000  1.0
  C  C215  1  0.91993000  0.31573000  0.97960000  1.0
  C  C216  1  0.97916000  0.30180000  0.97774000  1.0
  C  C217  1  0.03023000  0.32563500  0.97665000  1.0
  C  C218  1  0.88857000  0.45199000  0.64982000  1.0
  C  C219  1  0.90755000  0.47113500  0.68053000  1.0
  C  C220  1  0.87406000  0.46710000  0.71076000  1.0
  C  C221  1  0.82141000  0.44419000  0.71105000  1.0
  C  C222  1  0.80246000  0.42506000  0.68031000  1.0
  C  C223  1  0.83610000  0.42897000  0.65014000  1.0
  C  C224  1  0.91952000  0.81780000  0.79120000  1.0
  C  C225  1  0.88480000  0.78554000  0.77201000  1.0
  C  C226  1  0.84328000  0.79978000  0.74165000  1.0
  C  C227  1  0.79634000  0.82573000  0.75612000  1.0
  C  C228  1  0.83066000  0.85825500  0.77435000  1.0
  C  C229  1  0.87204000  0.84441000  0.80494500  1.0
  C  C230  1  0.95871000  0.83830000  0.76387000  1.0
  C  C231  1  0.91806000  0.85318000  0.73295000  1.0
  C  C232  1  0.88275000  0.82026000  0.71508500  1.0
  C  C233  1  0.87004000  0.87879000  0.74775000  1.0
  C  C234  1  0.82038000  0.38422000  0.13984000  1.0
  C  C235  1  0.87450000  0.40295500  0.12090000  1.0
  C  C236  1  0.85892000  0.44233000  0.11110000  1.0
  C  C237  1  0.80091000  0.44224500  0.08668000  1.0
  C  C238  1  0.74666000  0.42468500  0.10572000  1.0
  C  C239  1  0.76118000  0.38512000  0.11564000  1.0
  C  C240  1  0.80904000  0.40676000  0.17345500  1.0
  C  C241  1  0.79304000  0.44671000  0.16431000  1.0
  C  C242  1  0.84773000  0.46401500  0.14463000  1.0
  C  C243  1  0.73520000  0.44648500  0.13908000  1.0
  C  C244  1  0.54868000  0.65992500  0.65270500  1.0
  C  C245  1  0.54921000  0.66990000  0.61314000  1.0
  C  C246  1  0.61479000  0.66832500  0.60000000  1.0
  C  C247  1  0.65732000  0.69541500  0.62097000  1.0
  C  C248  1  0.65862000  0.68492000  0.66003000  1.0
  C  C249  1  0.59337000  0.68634000  0.67389000  1.0
  C  C250  1  0.57340000  0.62068500  0.65722000  1.0
  C  C251  1  0.63978000  0.61840500  0.64402000  1.0
  C  C252  1  0.63834000  0.62954000  0.60468000  1.0
  C  C253  1  0.68272000  0.64620000  0.66455500  1.0
  C  C254  1  0.22879000  0.16522500  0.31267000  1.0
  C  C255  1  0.25957000  0.16781500  0.27678000  1.0
  C  C256  1  0.25612000  0.13044000  0.25831000  1.0
  C  C257  1  0.28883000  0.10211000  0.28160500  1.0
  C  C258  1  0.25749000  0.09905000  0.31697500  1.0
  C  C259  1  0.26144000  0.13621000  0.33564000  1.0
  C  C260  1  0.16065000  0.15217500  0.30545000  1.0
  C  C261  1  0.15575000  0.11448000  0.28659000  1.0
  C  C262  1  0.18855000  0.11814500  0.25140500  1.0
  C  C263  1  0.18971000  0.08689500  0.31074500  1.0
  C  C264  1  0.77154000  0.65233000  0.87469000  1.0
  C  C265  1  0.81375000  0.65999500  0.84363000  1.0
  C  C266  1  0.82392000  0.62476000  0.82331000  1.0
  C  C267  1  0.85438000  0.59681000  0.84802000  1.0
  C  C268  1  0.81240000  0.58844500  0.87864000  1.0
  C  C269  1  0.80203000  0.62377500  0.89920000  1.0
  C  C270  1  0.70950000  0.63532500  0.85971000  1.0
  C  C271  1  0.71875000  0.59969000  0.83876000  1.0
  C  C272  1  0.76199000  0.60914000  0.80847000  1.0
  C  C273  1  0.75039000  0.57227000  0.86407000  1.0
  C  C274  1  0.58777000  0.32925000  0.27680000  1.0
  C  C275  1  0.63762000  0.31454500  0.25314000  1.0
  C  C276  1  0.67346000  0.28452000  0.27256000  1.0
  C  C277  1  0.70493000  0.30033500  0.30634000  1.0
  C  C278  1  0.65577000  0.31428000  0.33037000  1.0
  C  C279  1  0.61937000  0.34425000  0.31134000  1.0
  C  C280  1  0.54411000  0.29661000  0.28601500  1.0
  C  C281  1  0.57909000  0.26646000  0.30632000  1.0
  C  C282  1  0.62917000  0.25284000  0.28205500  1.0
  C  C283  1  0.61183000  0.28261000  0.33998500  1.0
  C  C284  1  0.23824000  0.77033500  0.74113500  1.0
  C  C285  1  0.18544000  0.76041500  0.76601000  1.0
  C  C286  1  0.19642000  0.77959000  0.80188000  1.0
  C  C287  1  0.25766000  0.76757000  0.81891000  1.0
  C  C288  1  0.31010000  0.77806000  0.79479000  1.0
  C  C289  1  0.29976000  0.75876500  0.75920000  1.0
  C  C290  1  0.23895000  0.81243500  0.73638000  1.0
  C  C291  1  0.25036000  0.83238500  0.77203000  1.0
  C  C292  1  0.19856000  0.82129500  0.79695000  1.0
  C  C293  1  0.31222000  0.81954500  0.78899000  1.0
  C  C294  1  0.92751000  0.13974000  0.09314000  1.0
  C  C295  1  0.86529000  0.11798500  0.09067500  1.0
  C  C296  1  0.87204000  0.08217000  0.07015000  1.0
  C  C297  1  0.89238000  0.09073000  0.03287000  1.0
  C  C298  1  0.95452000  0.11183500  0.03512000  1.0
  C  C299  1  0.94794000  0.14759500  0.05536000  1.0
  C  C300  1  0.97629000  0.11538500  0.11206000  1.0
  C  C301  1  0.98343000  0.07919500  0.09187000  1.0
  C  C302  1  0.92015000  0.05859500  0.08916500  1.0
  C  C303  1  0.00280000  0.08862000  0.05410000  1.0
  Cl  Cl304  1  0.67592000  0.94040500  0.92957000  1.0
  Cl  Cl305  1  0.74786000  0.80197000  0.01850000  1.0
  Cl  Cl306  1  0.51264000  0.50142500  0.05440000  1.0
  Cl  Cl307  1  0.36656000  0.48110000  0.19286000  1.0
  Cl  Cl308  1  0.07304000  0.66868500  0.54804000  1.0
  Cl  Cl309  1  0.35338000  0.64733000  0.52042000  1.0
  Cl  Cl310  1  0.86793000  0.90839500  0.35259000  1.0
  Cl  Cl311  1  0.80467000  0.04818500  0.26316000  1.0
  Cl  Cl312  1  0.19986000  0.64655500  0.91303000  1.0
  Cl  Cl313  1  0.97452000  0.66053000  0.01041000  1.0
  Cl  Cl314  1  0.75097000  0.43830000  0.43581000  1.0
  Cl  Cl315  1  0.74136000  0.57055000  0.33001000  1.0
  Cl  Cl316  1  0.68586000  0.84349000  0.60115500  1.0
  Cl  Cl317  1  0.40870000  0.88327000  0.57124000  1.0
  Cl  Cl318  1  0.21207000  0.90964000  0.09190000  1.0
  Cl  Cl319  1  0.27703000  0.98265500  0.23925500  1.0
  Cl  Cl320  1  0.14127000  0.38978000  0.38817000  1.0
  Cl  Cl321  1  0.37067000  0.35572000  0.48815500  1.0
  Cl  Cl322  1  0.93668000  0.05748000  0.63403000  1.0
  Cl  Cl323  1  0.15849000  0.96234000  0.59206500  1.0
  Cl  Cl324  1  0.56268000  0.14977000  0.96885000  1.0
  Cl  Cl325  1  0.62669000  0.17053500  0.13085500  1.0
  Cl  Cl326  1  0.43592000  0.39736000  0.84588500  1.0
  Cl  Cl327  1  0.39179000  0.52677500  0.73956000  1.0
  Cl  Cl328  1  0.49504000  0.05589000  0.45813500  1.0
  Cl  Cl329  1  0.55523000  0.22238000  0.48943000  1.0
  Cl  Cl330  1  0.26191000  0.06157000  0.88330500  1.0
  Cl  Cl331  1  0.07276000  0.92760500  0.87526500  1.0
  Cl  Cl332  1  0.95111000  0.42434000  0.97818000  1.0
  Cl  Cl333  1  0.99150000  0.25479500  0.97565000  1.0
  Cl  Cl334  1  0.97010000  0.50258000  0.68147000  1.0
  Cl  Cl335  1  0.73571000  0.39689500  0.67814000  1.0
  Ge  Ge336  1  0.92976000  0.78673000  0.86499000  1.0
  Ge  Ge337  1  0.86162000  0.80996000  0.94475000  1.0
  Ge  Ge338  1  0.97386000  0.74174000  0.94460000  1.0
  Ge  Ge339  1  0.82534000  0.72332500  0.90546000  1.0
  Ge  Ge340  1  0.70512000  0.46529000  0.22065000  1.0
  Ge  Ge341  1  0.55064000  0.49413000  0.21386000  1.0
  Ge  Ge342  1  0.62792000  0.49029500  0.29717000  1.0
  Ge  Ge343  1  0.58356000  0.40793000  0.25211000  1.0
  Ge  Ge344  1  0.29333000  0.74778500  0.67294500  1.0
  Ge  Ge345  1  0.41904000  0.79640500  0.63487000  1.0
  Ge  Ge346  1  0.32943000  0.73259500  0.58390000  1.0
  Ge  Ge347  1  0.43070000  0.70165500  0.65307000  1.0
  Ge  Ge348  1  0.03025000  0.03971500  0.15787000  1.0
  Ge  Ge349  1  0.09904000  0.97449000  0.21613500  1.0
  Ge  Ge350  1  0.94431000  0.99730500  0.22512000  1.0
  Ge  Ge351  1  0.06415000  0.06282000  0.24808000  1.0
  Ge  Ge352  1  0.46867000  0.24146000  0.34725500  1.0
  Ge  Ge353  1  0.37543000  0.30112000  0.39516500  1.0
  Ge  Ge354  1  0.40939000  0.21414000  0.42938000  1.0
  Ge  Ge355  1  0.30685000  0.22175000  0.35416500  1.0
  Ge  Ge356  1  0.18365000  0.90138500  0.75170000  1.0
  Ge  Ge357  1  0.13287000  0.97477500  0.69744000  1.0
  Ge  Ge358  1  0.08626000  0.96885500  0.78518500  1.0
  Ge  Ge359  1  0.02599000  0.90479000  0.72154500  1.0
  Ge  Ge360  1  0.82905000  0.30630000  0.11527500  1.0
  Ge  Ge361  1  0.84166000  0.27794000  0.02691000  1.0
  Ge  Ge362  1  0.71804000  0.24365500  0.07640500  1.0
  Ge  Ge363  1  0.86999000  0.21435000  0.09658000  1.0
  Ge  Ge364  1  0.65602000  0.55223500  0.69076000  1.0
  Ge  Ge365  1  0.71876000  0.47810000  0.73995000  1.0
  Ge  Ge366  1  0.55730000  0.48877000  0.73323000  1.0
  Ge  Ge367  1  0.65165000  0.55121500  0.78457000  1.0
  H  H368  1  0.21734000  0.97286000  0.96993500  1.0
  H  H369  1  0.30202000  0.96605000  0.01206500  1.0
  H  H370  1  0.45720000  0.11423500  0.00557500  1.0
  H  H371  1  0.34630000  0.89904000  0.10014000  1.0
  H  H372  1  0.52734000  0.93863500  0.05308000  1.0
  H  H373  1  0.32726000  0.01434000  0.11478000  1.0
  H  H374  1  0.40472000  0.05553000  0.99388500  1.0
  H  H375  1  0.55590000  0.90305500  0.92984500  1.0
  H  H376  1  0.34428000  0.00362000  0.89079000  1.0
  H  H377  1  0.42958000  0.00002000  0.93422500  1.0
  H  H378  1  0.38876000  0.02649000  0.06406500  1.0
  H  H379  1  0.61392000  0.90191500  0.03913000  1.0
  H  H380  1  0.61590000  0.05935500  0.04722500  1.0
  H  H381  1  0.56366000  0.00093000  0.03614000  1.0
  H  H382  1  0.47019000  0.94088500  0.94363000  1.0
  H  H383  1  0.40655000  0.91110000  0.04858500  1.0
  H  H384  1  0.34145000  0.42342500  0.06785000  1.0
  H  H385  1  0.27345000  0.41879500  0.01520000  1.0
  H  H386  1  0.13548000  0.57635000  0.89996000  1.0
  H  H387  1  0.25816000  0.45479000  0.82998000  1.0
  H  H388  1  0.14958000  0.46160000  0.01327000  1.0
  H  H389  1  0.42873000  0.46796500  0.89027000  1.0
  H  H390  1  0.18801000  0.51896000  0.90060000  1.0
  H  H391  1  0.10882000  0.36186000  0.92743000  1.0
  H  H392  1  0.39296000  0.53347500  0.03979500  1.0
  H  H393  1  0.32670000  0.52853500  0.98698000  1.0
  H  H394  1  0.37274000  0.47161500  0.94386000  1.0
  H  H395  1  0.06378000  0.41872000  0.02118000  1.0
  H  H396  1  0.15180000  0.58053000  0.01274500  1.0
  H  H397  1  0.20211000  0.52240500  0.01364000  1.0
  H  H398  1  0.19665000  0.40353000  0.92052000  1.0
  H  H399  1  0.20148000  0.45820000  0.88372000  1.0
  H  H400  1  0.84218000  0.55089500  0.45034000  1.0
  H  H401  1  0.92771000  0.54677500  0.49343000  1.0
  H  H402  1  0.10214000  0.60857000  0.47596000  1.0
  H  H403  1  0.00891000  0.44143000  0.63518500  1.0
  H  H404  1  0.10136000  0.49577000  0.45684000  1.0
  H  H405  1  0.83672000  0.47595500  0.58912000  1.0
  H  H406  1  0.03874000  0.55309000  0.46748000  1.0
  H  H407  1  0.12764000  0.37200000  0.50543000  1.0
  H  H408  1  0.88032000  0.44433500  0.41123000  1.0
  H  H409  1  0.96550000  0.43992500  0.45454000  1.0
  H  H410  1  0.88555000  0.48939500  0.53472000  1.0
  H  H411  1  0.17685000  0.45671000  0.43291000  1.0
  H  H412  1  0.15162000  0.57530000  0.58117000  1.0
  H  H413  1  0.08724000  0.52006500  0.57324000  1.0
  H  H414  1  0.05090000  0.41144500  0.52970000  1.0
  H  H415  1  0.05896000  0.45547000  0.58024000  1.0
  H  H416  1  0.92911000  0.06666000  0.55804500  1.0
  H  H417  1  0.83365000  0.05940000  0.52199000  1.0
  H  H418  1  0.68215000  0.10981500  0.44780000  1.0
  H  H419  1  0.71100000  0.98605000  0.36931500  1.0
  H  H420  1  0.74345000  0.96967000  0.56984000  1.0
  H  H421  1  0.90042000  0.97124500  0.40118000  1.0
  H  H422  1  0.75852000  0.06270500  0.45651000  1.0
  H  H423  1  0.60774000  0.88849000  0.49512000  1.0
  H  H424  1  0.93656000  0.95003000  0.56846000  1.0
  H  H425  1  0.84375000  0.94282500  0.53126000  1.0
  H  H426  1  0.87470000  0.97627500  0.46248000  1.0
  H  H427  1  0.67764000  0.92441000  0.59699000  1.0
  H  H428  1  0.57335000  0.06002000  0.52731500  1.0
  H  H429  1  0.64863000  0.01314000  0.53597000  1.0
  H  H430  1  0.67446000  0.93401000  0.46757000  1.0
  H  H431  1  0.68512000  0.99165000  0.43065500  1.0
  H  H432  1  0.99244000  0.78249500  0.81096000  1.0
  H  H433  1  0.99674000  0.82705000  0.82925000  1.0
  H  H434  1  0.86626000  0.87420500  0.96771000  1.0
  H  H435  1  0.85148000  0.84336500  0.00205000  1.0
  H  H436  1  0.03085000  0.72773500  0.00187000  1.0
  H  H437  1  0.08166000  0.74554000  0.97082000  1.0
  H  H438  1  0.73674000  0.68047000  0.92037000  1.0
  H  H439  1  0.72268000  0.70328000  0.87991000  1.0
  H  H440  1  0.82100000  0.46302000  0.21826000  1.0
  H  H441  1  0.79078000  0.49888000  0.19228000  1.0
  H  H442  1  0.51744000  0.54986500  0.18088500  1.0
  H  H443  1  0.45668000  0.53215500  0.20564000  1.0
  H  H444  1  0.59343000  0.50442000  0.35772000  1.0
  H  H445  1  0.62462000  0.54423500  0.33825000  1.0
  H  H446  1  0.53420000  0.34824000  0.23069000  1.0
  H  H447  1  0.50552000  0.36204000  0.27135000  1.0
  H  H448  1  0.21130000  0.72137500  0.71048000  1.0
  H  H449  1  0.18604000  0.76257000  0.69104500  1.0
  H  H450  1  0.48491000  0.84526500  0.66494000  1.0
  H  H451  1  0.42442000  0.86490500  0.63997500  1.0
  H  H452  1  0.33366000  0.72029500  0.51865000  1.0
  H  H453  1  0.26959000  0.74677000  0.52783000  1.0
  H  H454  1  0.45624000  0.63579500  0.65836000  1.0
  H  H455  1  0.48565000  0.65975500  0.69618000  1.0
  H  H456  1  0.03726000  0.03005500  0.09303500  1.0
  H  H457  1  0.07964000  0.06996500  0.10699500  1.0
  H  H458  1  0.13138000  0.90902000  0.21708500  1.0
  H  H459  1  0.17840000  0.93524500  0.24740000  1.0
  H  H460  1  0.85849000  0.94959500  0.22349000  1.0
  H  H461  1  0.82821000  0.99353500  0.21801000  1.0
  H  H462  1  0.06683000  0.09633000  0.30632000  1.0
  H  H463  1  0.06095000  0.12692500  0.27036000  1.0
  H  H464  1  0.51403000  0.22255000  0.29037000  1.0
  H  H465  1  0.56339000  0.21151500  0.32677500  1.0
  H  H466  1  0.37081000  0.36767000  0.38039500  1.0
  H  H467  1  0.40965000  0.36192000  0.42155500  1.0
  H  H468  1  0.38019000  0.17301000  0.47931500  1.0
  H  H469  1  0.43015000  0.20881000  0.49501500  1.0
  H  H470  1  0.21340000  0.22399000  0.31238000  1.0
  H  H471  1  0.19585000  0.20212000  0.35242000  1.0
  H  H472  1  0.27410000  0.88721500  0.79150000  1.0
  H  H473  1  0.29208000  0.88024500  0.74718500  1.0
  H  H474  1  0.19777000  0.00075000  0.64899500  1.0
  H  H475  1  0.16560000  0.03621000  0.67316500  1.0
  H  H476  1  0.02357000  0.98489500  0.83737000  1.0
  H  H477  1  0.05753000  0.02472000  0.81893000  1.0
  H  H478  1  0.97676000  0.85294500  0.68752000  1.0
  H  H479  1  0.92593000  0.88977500  0.68756000  1.0
  H  H480  1  0.88471000  0.34480000  0.16253500  1.0
  H  H481  1  0.80690000  0.33547000  0.17225000  1.0
  H  H482  1  0.82366000  0.30548500  0.96702500  1.0
  H  H483  1  0.86862000  0.26631000  0.96395000  1.0
  H  H484  1  0.60766000  0.25355500  0.05777500  1.0
  H  H485  1  0.61263000  0.23773000  0.10154000  1.0
  H  H486  1  0.96966000  0.18824500  0.11860500  1.0
  H  H487  1  0.90739000  0.16852000  0.14141000  1.0
  H  H488  1  0.64220000  0.56176000  0.62619000  1.0
  H  H489  1  0.71476000  0.58027500  0.64127000  1.0
  H  H490  1  0.76371000  0.41526500  0.74741000  1.0
  H  H491  1  0.81351000  0.44936000  0.76703000  1.0
  H  H492  1  0.48795000  0.43374500  0.71960500  1.0
  H  H493  1  0.45156000  0.47396500  0.70549500  1.0
  H  H494  1  0.63086000  0.57018000  0.84679000  1.0
  H  H495  1  0.62492000  0.60706500  0.81696000  1.0
  H  H496  1  0.78418000  0.90108500  0.93427000  1.0
  H  H497  1  0.63649000  0.83870500  0.01085000  1.0
  H  H498  1  0.54354000  0.52078500  0.12476500  1.0
  H  H499  1  0.33295000  0.46614000  0.12213000  1.0
  H  H500  1  0.17407000  0.71924000  0.54782500  1.0
  H  H501  1  0.25242000  0.59753000  0.52175000  1.0
  H  H502  1  0.88569000  0.92551000  0.28147000  1.0
  H  H503  1  0.78897000  0.03139500  0.33429000  1.0
  H  H504  1  0.12962000  0.70663000  0.92982000  1.0
  H  H505  1  0.04090000  0.59976000  0.99094000  1.0
  H  H506  1  0.65886000  0.46002500  0.38681000  1.0
  H  H507  1  0.83439000  0.54793000  0.37802000  1.0
  H  H508  1  0.57845000  0.82536000  0.63728000  1.0
  H  H509  1  0.51652000  0.90360000  0.53708000  1.0
  H  H510  1  0.15047000  0.90758000  0.15517500  1.0
  H  H511  1  0.34208000  0.98145000  0.17698000  1.0
  H  H512  1  0.25793000  0.36337000  0.37383500  1.0
  H  H513  1  0.25560000  0.38446500  0.50192000  1.0
  H  H514  1  0.05388000  0.04876500  0.66621500  1.0
  H  H515  1  0.04508000  0.97532000  0.55732500  1.0
  H  H516  1  0.60538000  0.21157000  0.00809500  1.0
  H  H517  1  0.58090000  0.10979000  0.09185000  1.0
  H  H518  1  0.48644000  0.41342500  0.78039000  1.0
  H  H519  1  0.34087000  0.51019000  0.80465500  1.0
  H  H520  1  0.41925000  0.11684000  0.45781000  1.0
  H  H521  1  0.63035000  0.16092000  0.49210500  1.0
  H  H522  1  0.15729000  0.04715500  0.83918500  1.0
  H  H523  1  0.18266000  0.93932000  0.91552500  1.0
  H  H524  1  0.86821000  0.36457000  0.98258500  1.0
  H  H525  1  0.07543000  0.31458500  0.97498500  1.0
  H  H526  1  0.88825000  0.48267000  0.73394000  1.0
  H  H527  1  0.82059000  0.41446500  0.62656000  1.0
  H  H528  1  0.85554000  0.77008000  0.78996000  1.0
  H  H529  1  0.91782000  0.76621000  0.76167000  1.0
  H  H530  1  0.81848000  0.77644000  0.72837000  1.0
  H  H531  1  0.76545000  0.83550000  0.73447500  1.0
  H  H532  1  0.76702000  0.81109000  0.77497000  1.0
  H  H533  1  0.79676000  0.87697000  0.78470000  1.0
  H  H534  1  0.89586000  0.86786000  0.81865500  1.0
  H  H535  1  0.84212000  0.83057000  0.82393000  1.0
  H  H536  1  0.99314000  0.81983000  0.75353000  1.0
  H  H537  1  0.98446000  0.86088000  0.77761000  1.0
  H  H538  1  0.85282000  0.82966000  0.69280000  1.0
  H  H539  1  0.91544000  0.80111500  0.70409000  1.0
  H  H540  1  0.83969000  0.88926000  0.72616000  1.0
  H  H541  1  0.89247000  0.90281000  0.76081500  1.0
  H  H542  1  0.88484000  0.38808500  0.09681000  1.0
  H  H543  1  0.91700000  0.40319000  0.13803000  1.0
  H  H544  1  0.89788000  0.45524000  0.09742000  1.0
  H  H545  1  0.79022000  0.47054000  0.07886000  1.0
  H  H546  1  0.80880000  0.42692500  0.06227000  1.0
  H  H547  1  0.70486000  0.42475000  0.08808000  1.0
  H  H548  1  0.72176000  0.37229500  0.12902500  1.0
  H  H549  1  0.76635000  0.36989000  0.09099000  1.0
  H  H550  1  0.85055000  0.40653000  0.19141000  1.0
  H  H551  1  0.77126000  0.39357000  0.18771000  1.0
  H  H552  1  0.83831000  0.49267000  0.13740000  1.0
  H  H553  1  0.89014000  0.46470000  0.16186000  1.0
  H  H554  1  0.72332000  0.47477000  0.13186000  1.0
  H  H555  1  0.69496000  0.43364000  0.15153000  1.0
  H  H556  1  0.53299000  0.69779000  0.60833000  1.0
  H  H557  1  0.51817000  0.65090500  0.59758000  1.0
  H  H558  1  0.61438000  0.67571000  0.57179500  1.0
  H  H559  1  0.70441000  0.69512500  0.61101000  1.0
  H  H560  1  0.64086000  0.72355000  0.61753000  1.0
  H  H561  1  0.68948000  0.70440000  0.67508000  1.0
  H  H562  1  0.59470000  0.67903000  0.70216000  1.0
  H  H563  1  0.57829000  0.71466000  0.67215000  1.0
  H  H564  1  0.54268000  0.60077500  0.64251000  1.0
  H  H565  1  0.57232000  0.61310000  0.68530000  1.0
  H  H566  1  0.68498000  0.62826000  0.59416000  1.0
  H  H567  1  0.60810000  0.61033000  0.58883000  1.0
  H  H568  1  0.73013000  0.64542500  0.65506000  1.0
  H  H569  1  0.68588000  0.63977500  0.69278000  1.0
  H  H570  1  0.30831000  0.17655000  0.28010000  1.0
  H  H571  1  0.23674000  0.18830500  0.25972500  1.0
  H  H572  1  0.27905000  0.13268000  0.23295500  1.0
  H  H573  1  0.28720000  0.07520500  0.26825000  1.0
  H  H574  1  0.33803000  0.11026000  0.28600000  1.0
  H  H575  1  0.28125000  0.07866000  0.33366500  1.0
  H  H576  1  0.24019000  0.13389000  0.36152000  1.0
  H  H577  1  0.31069000  0.14377000  0.34047000  1.0
  H  H578  1  0.13639000  0.17280500  0.28918000  1.0
  H  H579  1  0.13677000  0.15030000  0.33060000  1.0
  H  H580  1  0.18761000  0.09183000  0.23716500  1.0
  H  H581  1  0.16505000  0.13810000  0.23404000  1.0
  H  H582  1  0.18843000  0.05943000  0.29927500  1.0
  H  H583  1  0.16739000  0.08451500  0.33631000  1.0
  H  H584  1  0.85954000  0.67055000  0.85328000  1.0
  H  H585  1  0.79325000  0.68047500  0.82561000  1.0
  H  H586  1  0.85442000  0.63086000  0.80137000  1.0
  H  H587  1  0.86277000  0.57141500  0.83342000  1.0
  H  H588  1  0.89976000  0.60769000  0.85825000  1.0
  H  H589  1  0.83455000  0.56841000  0.89644000  1.0
  H  H590  1  0.77272000  0.61750500  0.92167000  1.0
  H  H591  1  0.84679000  0.63438000  0.91027000  1.0
  H  H592  1  0.68634000  0.65540500  0.84227000  1.0
  H  H593  1  0.67835000  0.62958500  0.88151500  1.0
  H  H594  1  0.77157000  0.58479000  0.79280000  1.0
  H  H595  1  0.74052000  0.62924000  0.79041000  1.0
  H  H596  1  0.75829000  0.54631500  0.85053000  1.0
  H  H597  1  0.72061000  0.56561000  0.88624000  1.0
  H  H598  1  0.67042000  0.33657000  0.24599000  1.0
  H  H599  1  0.61634000  0.30337000  0.22829000  1.0
  H  H600  1  0.70889000  0.27425000  0.25535000  1.0
  H  H601  1  0.73204000  0.27913500  0.32007000  1.0
  H  H602  1  0.73755000  0.32290500  0.29984000  1.0
  H  H603  1  0.67853000  0.32572500  0.35469000  1.0
  H  H604  1  0.58463000  0.35484500  0.32886000  1.0
  H  H605  1  0.65232000  0.36686500  0.30573000  1.0
  H  H606  1  0.52184000  0.28494000  0.26158500  1.0
  H  H607  1  0.50667000  0.30672000  0.30139000  1.0
  H  H608  1  0.65571000  0.23099500  0.29521500  1.0
  H  H609  1  0.60767000  0.24083000  0.25759500  1.0
  H  H610  1  0.63803000  0.26127500  0.35413500  1.0
  H  H611  1  0.57873000  0.29280500  0.35846500  1.0
  H  H612  1  0.18224000  0.73048500  0.77017500  1.0
  H  H613  1  0.14054000  0.76848500  0.75404500  1.0
  H  H614  1  0.15852000  0.77186500  0.81919000  1.0
  H  H615  1  0.26574000  0.78079500  0.84493000  1.0
  H  H616  1  0.25613000  0.73768500  0.82335500  1.0
  H  H617  1  0.35440000  0.76968500  0.80721000  1.0
  H  H618  1  0.33923000  0.76606500  0.74297000  1.0
  H  H619  1  0.29949000  0.72878500  0.76302500  1.0
  H  H620  1  0.19498000  0.82048500  0.72359000  1.0
  H  H621  1  0.27493000  0.82153500  0.71889000  1.0
  H  H622  1  0.20650000  0.83499000  0.82277000  1.0
  H  H623  1  0.15310000  0.82953500  0.78658000  1.0
  H  H624  1  0.32213000  0.83337500  0.81460000  1.0
  H  H625  1  0.35088000  0.82696000  0.77202000  1.0
  H  H626  1  0.82965000  0.13402000  0.07683000  1.0
  H  H627  1  0.84903000  0.11185000  0.11729000  1.0
  H  H628  1  0.82714000  0.06703000  0.06853500  1.0
  H  H629  1  0.89646000  0.06509000  0.01784000  1.0
  H  H630  1  0.85733000  0.10707500  0.01863500  1.0
  H  H631  1  0.96922000  0.11808000  0.00823000  1.0
  H  H632  1  0.99186000  0.16378500  0.05586000  1.0
  H  H633  1  0.91284000  0.16303000  0.04060000  1.0
  H  H634  1  0.96213000  0.10941000  0.13912000  1.0
  H  H635  1  0.02141000  0.13032500  0.11441000  1.0
  H  H636  1  0.92367000  0.03228500  0.07515000  1.0
  H  H637  1  0.90320000  0.05259000  0.11532000  1.0
  H  H638  1  0.00860000  0.06332000  0.03876500  1.0
  H  H639  1  0.04782000  0.10373000  0.05487000  1.0
  S  S640  1  0.89478000  0.83132500  0.89545000  1.0
  S  S641  1  0.85628000  0.74599000  0.85621000  1.0
  S  S642  1  0.00546000  0.76207000  0.89469000  1.0
  S  S643  1  0.78938000  0.76813000  0.93529000  1.0
  S  S644  1  0.93764000  0.78612500  0.97407000  1.0
  S  S645  1  0.90210000  0.69979000  0.93525000  1.0
  S  S646  1  0.63844000  0.49544000  0.18884000  1.0
  S  S647  1  0.67164000  0.40915000  0.22698000  1.0
  S  S648  1  0.71626000  0.49070000  0.27234000  1.0
  S  S649  1  0.51764000  0.43786500  0.21944000  1.0
  S  S650  1  0.56210000  0.51986000  0.26498000  1.0
  S  S651  1  0.59342000  0.43455000  0.30333500  1.0
  S  S652  1  0.34458000  0.79931500  0.67031000  1.0
  S  S653  1  0.35590000  0.70492500  0.68920500  1.0
  S  S654  1  0.25520000  0.73545000  0.62039000  1.0
  S  S655  1  0.48065000  0.75411500  0.65248000  1.0
  S  S656  1  0.38112000  0.78435500  0.58237500  1.0
  S  S657  1  0.39112000  0.68981500  0.60069000  1.0
  S  S658  1  0.09535000  0.99597000  0.16286500  1.0
  S  S659  1  0.05965000  0.08344000  0.19426000  1.0
  S  S660  1  0.94101000  0.01703500  0.17150000  1.0
  S  S661  1  0.12775000  0.01815500  0.25207500  1.0
  S  S662  1  0.00890000  0.95345000  0.23003500  1.0
  S  S663  1  0.97291000  0.04180000  0.26075000  1.0
  S  S664  1  0.45336000  0.29779500  0.36185500  1.0
  S  S665  1  0.38514000  0.21956500  0.32057500  1.0
  S  S666  1  0.48701000  0.21063000  0.39529000  1.0
  S  S667  1  0.29305000  0.27855000  0.36778500  1.0
  S  S668  1  0.39457000  0.27069000  0.44295000  1.0
  S  S669  1  0.32667000  0.19144000  0.40238000  1.0
  S  S670  1  0.20907000  0.93929000  0.71026000  1.0
  S  S671  1  0.10260000  0.86941500  0.73334000  1.0
  S  S672  1  0.16092000  0.93234500  0.79765000  1.0
  S  S673  1  0.05217000  0.94176500  0.67984500  1.0
  S  S674  1  0.11249000  0.00615500  0.74377000  1.0
  S  S675  1  0.00527000  0.93706000  0.76733500  1.0
  S  S676  1  0.85626000  0.32341000  0.06319000  1.0
  S  S677  1  0.88289000  0.26010000  0.13304500  1.0
  S  S678  1  0.73266000  0.28919500  0.11246000  1.0
  S  S679  1  0.89856000  0.23392000  0.04559000  1.0
  S  S680  1  0.74538000  0.25996500  0.02442000  1.0
  S  S681  1  0.77257000  0.19793500  0.09441500  1.0
  S  S682  1  0.72894000  0.51295000  0.69408000  1.0
  S  S683  1  0.66190000  0.58524500  0.73825000  1.0
  S  S684  1  0.56734000  0.52324000  0.68729000  1.0
  S  S685  1  0.72333000  0.51105500  0.78747000  1.0
  S  S686  1  0.62995000  0.44929500  0.73592000  1.0
  S  S687  1  0.56238000  0.52263500  0.78043000  1.0
  Si  Si688  1  0.43734000  0.97899000  0.00977000  1.0
  Si  Si689  1  0.23976000  0.47194500  0.95872000  1.0
  Si  Si690  1  0.01405000  0.48837000  0.51225000  1.0
  Si  Si691  1  0.75892000  0.99360500  0.49728000  1.0
