# generated using pymatgen
data_NiH12C28S6(NO2)2
_symmetry_space_group_name_H-M   'P 1'
_cell_length_a   27.56100000
_cell_length_b   42.69390000
_cell_length_c   43.17100000
_cell_angle_alpha   89.99800000
_cell_angle_beta   90.05700000
_cell_angle_gamma   89.94300000
_symmetry_Int_Tables_number   1
_chemical_formula_structural   NiH12C28S6(NO2)2
_chemical_formula_sum   'Ni8 H96 C224 S48 N16 O32'
_cell_volume   50798.68594620
_cell_formula_units_Z   8
loop_
 _symmetry_equiv_pos_site_id
 _symmetry_equiv_pos_as_xyz
  1  'x, y, z'
loop_
 _atom_site_type_symbol
 _atom_site_label
 _atom_site_symmetry_multiplicity
 _atom_site_fract_x
 _atom_site_fract_y
 _atom_site_fract_z
 _atom_site_occupancy
  Ni  Ni0  1  0.97455000  0.62826000  0.37401000  1.0
  Ni  Ni1  1  0.97554000  0.32743000  0.37287000  1.0
  Ni  Ni2  1  0.97472000  0.32543000  0.67149000  1.0
  Ni  Ni3  1  0.97250000  0.63031000  0.67428000  1.0
  Ni  Ni4  1  0.48202000  0.12888000  0.87453000  1.0
  Ni  Ni5  1  0.46764000  0.82432000  0.87036000  1.0
  Ni  Ni6  1  0.47611000  0.82916000  0.16878000  1.0
  Ni  Ni7  1  0.47212000  0.13469000  0.17147000  1.0
  H  H8  1  0.99911000  0.64017000  0.30747000  1.0
  H  H9  1  0.06361000  0.67115000  0.28208000  1.0
  H  H10  1  0.11634000  0.69756000  0.37255000  1.0
  H  H11  1  0.05314000  0.66583000  0.39595000  1.0
  H  H12  1  0.94573000  0.69458000  0.35944000  1.0
  H  H13  1  0.87476000  0.71729000  0.33282000  1.0
  H  H14  1  0.82334000  0.62308000  0.31575000  1.0
  H  H15  1  0.89379000  0.60290000  0.34166000  1.0
  H  H16  1  0.96894000  0.32142000  0.30454000  1.0
  H  H17  1  0.90441000  0.30393000  0.26909000  1.0
  H  H18  1  0.81640000  0.28047000  0.34834000  1.0
  H  H19  1  0.88050000  0.30011000  0.38216000  1.0
  H  H20  1  0.98080000  0.25860000  0.36572000  1.0
  H  H21  1  0.04496000  0.22240000  0.34898000  1.0
  H  H22  1  0.13548000  0.30195000  0.32771000  1.0
  H  H23  1  0.07122000  0.33658000  0.34639000  1.0
  H  H24  1  0.97013000  0.25631000  0.67631000  1.0
  H  H25  1  0.90779000  0.21988000  0.69490000  1.0
  H  H26  1  0.82502000  0.29895000  0.72813000  1.0
  H  H27  1  0.88744000  0.33385000  0.70789000  1.0
  H  H28  1  0.99909000  0.31073000  0.73738000  1.0
  H  H29  1  0.06823000  0.28320000  0.76179000  1.0
  H  H30  1  0.13469000  0.27506000  0.67169000  1.0
  H  H31  1  0.06622000  0.30319000  0.64930000  1.0
  H  H32  1  0.97916000  0.64320000  0.74197000  1.0
  H  H33  1  0.92186000  0.66474000  0.77991000  1.0
  H  H34  1  0.81954000  0.68047000  0.70552000  1.0
  H  H35  1  0.87810000  0.65855000  0.66943000  1.0
  H  H36  1  0.98836000  0.69836000  0.68651000  1.0
  H  H37  1  0.06094000  0.72954000  0.69949000  1.0
  H  H38  1  0.14587000  0.64462000  0.69826000  1.0
  H  H39  1  0.07215000  0.61498000  0.68685000  1.0
  H  H40  1  0.48904000  0.12554000  0.80555000  1.0
  H  H41  1  0.55166000  0.14215000  0.76829000  1.0
  H  H42  1  0.63771000  0.17609000  0.84488000  1.0
  H  H43  1  0.57534000  0.15800000  0.88037000  1.0
  H  H44  1  0.46975000  0.19426000  0.85062000  1.0
  H  H45  1  0.40489000  0.22005000  0.82027000  1.0
  H  H46  1  0.32319000  0.13400000  0.82320000  1.0
  H  H47  1  0.38748000  0.11036000  0.85420000  1.0
  H  H48  1  0.47813000  0.81899000  0.80130000  1.0
  H  H49  1  0.42311000  0.80032000  0.76022000  1.0
  H  H50  1  0.31219000  0.78653000  0.82955000  1.0
  H  H51  1  0.36880000  0.80452000  0.86882000  1.0
  H  H52  1  0.47908000  0.75812000  0.84745000  1.0
  H  H53  1  0.55091000  0.72699000  0.83205000  1.0
  H  H54  1  0.64033000  0.80826000  0.84804000  1.0
  H  H55  1  0.56801000  0.83786000  0.86191000  1.0
  H  H56  1  0.45680000  0.76343000  0.19054000  1.0
  H  H57  1  0.38999000  0.73983000  0.22079000  1.0
  H  H58  1  0.31989000  0.83023000  0.22307000  1.0
  H  H59  1  0.38598000  0.85170000  0.19256000  1.0
  H  H60  1  0.48603000  0.82466000  0.23792000  1.0
  H  H61  1  0.54422000  0.79628000  0.27143000  1.0
  H  H62  1  0.62680000  0.77206000  0.19012000  1.0
  H  H63  1  0.56801000  0.80033000  0.15833000  1.0
  H  H64  1  0.46749000  0.13278000  0.24042000  1.0
  H  H65  1  0.40453000  0.14777000  0.27820000  1.0
  H  H66  1  0.31112000  0.17376000  0.20213000  1.0
  H  H67  1  0.37391000  0.15698000  0.16605000  1.0
  H  H68  1  0.47270000  0.20193000  0.18900000  1.0
  H  H69  1  0.53566000  0.23714000  0.20934000  1.0
  H  H70  1  0.63178000  0.15784000  0.21826000  1.0
  H  H71  1  0.56889000  0.12450000  0.19590000  1.0
  H  H72  1  0.91500000  0.57974000  0.45276000  1.0
  H  H73  1  0.96697000  0.58037000  0.59440000  1.0
  H  H74  1  0.00864000  0.55121000  0.42449000  1.0
  H  H75  1  0.94381000  0.41044000  0.41887000  1.0
  H  H76  1  0.98357000  0.37423000  0.45288000  1.0
  H  H77  1  0.92141000  0.37246000  0.59280000  1.0
  H  H78  1  0.91409000  0.54851000  0.63617000  1.0
  H  H79  1  0.96808000  0.40630000  0.62797000  1.0
  H  H80  1  0.45387000  0.20711000  0.94794000  1.0
  H  H81  1  0.48344000  0.21153000  0.09467000  1.0
  H  H82  1  0.43918000  0.90486000  0.92318000  1.0
  H  H83  1  0.50256000  0.04755000  0.93007000  1.0
  H  H84  1  0.43264000  0.75475000  0.09515000  1.0
  H  H85  1  0.46096000  0.74963000  0.94856000  1.0
  H  H86  1  0.45445000  0.05291000  0.11620000  1.0
  H  H87  1  0.50974000  0.90879000  0.11352000  1.0
  H  H88  1  0.59245000  0.71607000  0.22962000  1.0
  H  H89  1  0.76840000  0.64163000  0.28428000  1.0
  H  H90  1  0.81385000  0.31945000  0.25147000  1.0
  H  H91  1  0.62323000  0.25943000  0.19201000  1.0
  H  H92  1  0.63756000  0.13468000  0.74630000  1.0
  H  H93  1  0.82403000  0.19911000  0.68562000  1.0
  H  H94  1  0.69206000  0.76304000  0.87169000  1.0
  H  H95  1  0.87522000  0.70168000  0.80756000  1.0
  H  H96  1  0.38037000  0.75634000  0.73518000  1.0
  H  H97  1  0.20483000  0.68410000  0.67313000  1.0
  H  H98  1  0.12830000  0.74763000  0.34402000  1.0
  H  H99  1  0.30531000  0.81159000  0.27747000  1.0
  H  H100  1  0.13076000  0.20084000  0.36274000  1.0
  H  H101  1  0.31494000  0.13536000  0.29981000  1.0
  H  H102  1  0.14669000  0.21978000  0.69497000  1.0
  H  H103  1  0.32176000  0.15384000  0.76293000  1.0
  C  C104  1  0.01357000  0.58531000  0.36915000  1.0
  C  C105  1  0.02503000  0.65278000  0.32155000  1.0
  C  C106  1  0.06177000  0.67025000  0.30712000  1.0
  C  C107  1  0.09474000  0.68718000  0.32537000  1.0
  C  C108  1  0.09100000  0.68538000  0.35762000  1.0
  C  C109  1  0.05469000  0.66740000  0.37099000  1.0
  C  C110  1  0.93759000  0.63321000  0.41717000  1.0
  C  C111  1  0.91892000  0.67918000  0.34931000  1.0
  C  C112  1  0.87830000  0.69209000  0.33425000  1.0
  C  C113  1  0.84273000  0.67221000  0.32155000  1.0
  C  C114  1  0.84957000  0.63976000  0.32425000  1.0
  C  C115  1  0.89026000  0.62799000  0.33918000  1.0
  C  C116  1  0.95616000  0.37515000  0.36441000  1.0
  C  C117  1  0.93536000  0.31259000  0.31406000  1.0
  C  C118  1  0.89873000  0.30259000  0.29388000  1.0
  C  C119  1  0.85535000  0.29067000  0.30599000  1.0
  C  C120  1  0.84966000  0.28914000  0.33813000  1.0
  C  C121  1  0.88639000  0.30024000  0.35743000  1.0
  C  C122  1  0.99506000  0.31812000  0.41991000  1.0
  C  C123  1  0.01481000  0.26804000  0.35750000  1.0
  C  C124  1  0.05132000  0.24740000  0.34798000  1.0
  C  C125  1  0.09542000  0.25934000  0.33701000  1.0
  C  C126  1  0.10175000  0.29184000  0.33577000  1.0
  C  C127  1  0.06496000  0.31160000  0.34628000  1.0
  C  C128  1  0.94168000  0.31823000  0.62737000  1.0
  C  C129  1  0.93840000  0.26556000  0.68785000  1.0
  C  C130  1  0.90282000  0.24480000  0.69834000  1.0
  C  C131  1  0.86106000  0.25651000  0.71283000  1.0
  C  C132  1  0.85680000  0.28889000  0.71725000  1.0
  C  C133  1  0.89262000  0.30884000  0.70586000  1.0
  C  C134  1  0.99757000  0.37250000  0.68010000  1.0
  C  C135  1  0.02928000  0.30322000  0.72321000  1.0
  C  C136  1  0.06857000  0.28768000  0.73710000  1.0
  C  C137  1  0.10651000  0.27657000  0.71848000  1.0
  C  C138  1  0.10559000  0.28281000  0.68670000  1.0
  C  C139  1  0.06645000  0.29875000  0.67395000  1.0
  C  C140  1  0.94690000  0.58472000  0.68609000  1.0
  C  C141  1  0.94431000  0.65176000  0.73412000  1.0
  C  C142  1  0.91155000  0.66410000  0.75573000  1.0
  C  C143  1  0.86553000  0.67444000  0.74594000  1.0
  C  C144  1  0.85425000  0.67263000  0.71435000  1.0
  C  C145  1  0.88800000  0.66043000  0.69359000  1.0
  C  C146  1  0.98612000  0.63663000  0.62596000  1.0
  C  C147  1  0.02281000  0.68662000  0.68965000  1.0
  C  C148  1  0.06408000  0.70438000  0.69696000  1.0
  C  C149  1  0.10931000  0.68953000  0.69962000  1.0
  C  C150  1  0.11170000  0.65699000  0.69606000  1.0
  C  C151  1  0.06962000  0.64009000  0.68972000  1.0
  C  C152  1  0.50655000  0.08157000  0.87384000  1.0
  C  C153  1  0.52182000  0.13651000  0.81402000  1.0
  C  C154  1  0.55744000  0.14594000  0.79282000  1.0
  C  C155  1  0.59960000  0.16082000  0.80360000  1.0
  C  C156  1  0.60536000  0.16529000  0.83549000  1.0
  C  C157  1  0.56963000  0.15502000  0.85578000  1.0
  C  C158  1  0.45970000  0.14704000  0.91811000  1.0
  C  C159  1  0.43725000  0.18132000  0.84489000  1.0
  C  C160  1  0.40041000  0.19602000  0.82776000  1.0
  C  C161  1  0.35928000  0.17880000  0.81917000  1.0
  C  C162  1  0.35481000  0.14782000  0.82914000  1.0
  C  C163  1  0.39164000  0.13433000  0.84660000  1.0
  C  C164  1  0.44867000  0.87252000  0.86616000  1.0
  C  C165  1  0.44175000  0.81174000  0.80729000  1.0
  C  C166  1  0.41037000  0.80109000  0.78392000  1.0
  C  C167  1  0.36294000  0.79168000  0.79149000  1.0
  C  C168  1  0.34819000  0.79362000  0.82244000  1.0
  C  C169  1  0.38071000  0.80373000  0.84498000  1.0
  C  C170  1  0.47790000  0.80762000  0.91631000  1.0
  C  C171  1  0.51441000  0.76912000  0.84696000  1.0
  C  C172  1  0.55519000  0.75141000  0.83825000  1.0
  C  C173  1  0.60139000  0.76518000  0.83915000  1.0
  C  C174  1  0.60535000  0.79672000  0.84736000  1.0
  C  C175  1  0.56399000  0.81366000  0.85504000  1.0
  C  C176  1  0.44844000  0.81363000  0.12544000  1.0
  C  C177  1  0.42651000  0.77787000  0.19760000  1.0
  C  C178  1  0.38848000  0.76441000  0.21468000  1.0
  C  C179  1  0.35001000  0.78337000  0.22478000  1.0
  C  C180  1  0.34949000  0.81497000  0.21633000  1.0
  C  C181  1  0.38738000  0.82727000  0.19904000  1.0
  C  C182  1  0.50590000  0.87518000  0.17000000  1.0
  C  C183  1  0.51741000  0.81357000  0.22764000  1.0
  C  C184  1  0.55059000  0.79768000  0.24671000  1.0
  C  C185  1  0.58997000  0.78205000  0.23320000  1.0
  C  C186  1  0.59677000  0.78399000  0.20123000  1.0
  C  C187  1  0.56308000  0.79990000  0.18316000  1.0
  C  C188  1  0.45680000  0.08581000  0.17331000  1.0
  C  C189  1  0.43295000  0.14145000  0.23216000  1.0
  C  C190  1  0.39720000  0.14999000  0.25365000  1.0
  C  C191  1  0.35302000  0.16237000  0.24309000  1.0
  C  C192  1  0.34510000  0.16486000  0.21120000  1.0
  C  C193  1  0.38102000  0.15536000  0.19062000  1.0
  C  C194  1  0.49003000  0.15281000  0.12702000  1.0
  C  C195  1  0.50762000  0.19231000  0.19537000  1.0
  C  C196  1  0.54337000  0.21237000  0.20700000  1.0
  C  C197  1  0.58872000  0.20019000  0.21544000  1.0
  C  C198  1  0.59699000  0.16803000  0.21230000  1.0
  C  C199  1  0.56096000  0.14899000  0.19969000  1.0
  C  C200  1  0.92745000  0.63071000  0.45037000  1.0
  C  C201  1  0.92009000  0.60172000  0.46483000  1.0
  C  C202  1  0.97764000  0.63157000  0.59287000  1.0
  C  C203  1  0.96632000  0.60189000  0.58113000  1.0
  C  C204  1  0.95158000  0.60381000  0.55058000  1.0
  C  C205  1  0.92744000  0.60400000  0.49649000  1.0
  C  C206  1  0.95208000  0.63324000  0.53812000  1.0
  C  C207  1  0.93892000  0.63327000  0.50713000  1.0
  C  C208  1  0.01985000  0.55161000  0.37391000  1.0
  C  C209  1  0.01193000  0.53816000  0.40308000  1.0
  C  C210  1  0.95811000  0.40917000  0.36860000  1.0
  C  C211  1  0.95452000  0.42272000  0.39807000  1.0
  C  C212  1  0.97089000  0.45331000  0.39778000  1.0
  C  C213  1  0.00092000  0.50665000  0.40044000  1.0
  C  C214  1  0.98515000  0.46432000  0.36950000  1.0
  C  C215  1  0.00148000  0.49496000  0.37094000  1.0
  C  C216  1  0.99066000  0.32278000  0.45330000  1.0
  C  C217  1  0.98156000  0.35251000  0.46568000  1.0
  C  C218  1  0.93240000  0.32133000  0.59421000  1.0
  C  C219  1  0.92672000  0.35075000  0.58032000  1.0
  C  C220  1  0.93672000  0.34923000  0.54895000  1.0
  C  C221  1  0.96560000  0.35031000  0.49592000  1.0
  C  C222  1  0.94791000  0.32005000  0.53798000  1.0
  C  C223  1  0.96359000  0.32061000  0.50757000  1.0
  C  C224  1  0.94126000  0.55067000  0.68419000  1.0
  C  C225  1  0.92702000  0.53625000  0.65652000  1.0
  C  C226  1  0.99204000  0.40642000  0.67670000  1.0
  C  C227  1  0.97429000  0.41928000  0.64913000  1.0
  C  C228  1  0.96197000  0.45036000  0.65303000  1.0
  C  C229  1  0.93750000  0.50462000  0.65702000  1.0
  C  C230  1  0.97072000  0.46238000  0.68186000  1.0
  C  C231  1  0.95761000  0.49369000  0.68394000  1.0
  C  C232  1  0.45496000  0.15544000  0.95069000  1.0
  C  C233  1  0.45611000  0.18621000  0.96207000  1.0
  C  C234  1  0.49257000  0.16012000  0.09409000  1.0
  C  C235  1  0.48528000  0.19002000  0.08145000  1.0
  C  C236  1  0.47846000  0.18802000  0.04962000  1.0
  C  C237  1  0.46295000  0.18616000  0.99395000  1.0
  C  C238  1  0.47853000  0.15825000  0.03805000  1.0
  C  C239  1  0.46873000  0.15717000  0.00678000  1.0
  C  C240  1  0.44846000  0.90616000  0.87239000  1.0
  C  C241  1  0.44709000  0.91835000  0.90256000  1.0
  C  C242  1  0.51101000  0.04794000  0.87925000  1.0
  C  C243  1  0.50403000  0.03453000  0.90857000  1.0
  C  C244  1  0.49215000  0.00304000  0.90590000  1.0
  C  C245  1  0.46242000  0.94930000  0.90288000  1.0
  C  C246  1  0.49079000  0.99181000  0.87627000  1.0
  C  C247  1  0.47439000  0.96130000  0.87459000  1.0
  C  C248  1  0.43983000  0.80621000  0.09293000  1.0
  C  C249  1  0.43631000  0.77567000  0.08118000  1.0
  C  C250  1  0.47550000  0.80050000  0.94934000  1.0
  C  C251  1  0.46408000  0.77108000  0.96177000  1.0
  C  C252  1  0.45617000  0.77344000  0.99346000  1.0
  C  C253  1  0.44145000  0.77574000  0.04918000  1.0
  C  C254  1  0.45955000  0.80308000  0.00516000  1.0
  C  C255  1  0.45027000  0.80447000  0.03650000  1.0
  C  C256  1  0.45876000  0.05213000  0.16727000  1.0
  C  C257  1  0.46025000  0.03963000  0.13725000  1.0
  C  C258  1  0.51275000  0.90868000  0.16460000  1.0
  C  C259  1  0.51001000  0.92198000  0.13494000  1.0
  C  C260  1  0.50051000  0.95387000  0.13682000  1.0
  C  C261  1  0.47438000  0.00845000  0.13796000  1.0
  C  C262  1  0.49700000  0.96553000  0.16622000  1.0
  C  C263  1  0.48268000  0.99655000  0.16686000  1.0
  C  C264  1  0.61965000  0.75965000  0.25074000  1.0
  C  C265  1  0.61823000  0.72744000  0.24484000  1.0
  C  C266  1  0.79815000  0.68461000  0.30629000  1.0
  C  C267  1  0.76482000  0.66627000  0.28948000  1.0
  C  C268  1  0.72572000  0.68387000  0.27947000  1.0
  C  C269  1  0.65651000  0.71230000  0.25917000  1.0
  C  C270  1  0.72693000  0.71488000  0.28716000  1.0
  C  C271  1  0.68737000  0.73119000  0.27553000  1.0
  C  C272  1  0.81534000  0.28077000  0.28551000  1.0
  C  C273  1  0.79835000  0.29776000  0.25981000  1.0
  C  C274  1  0.62816000  0.22088000  0.22607000  1.0
  C  C275  1  0.64150000  0.24913000  0.21174000  1.0
  C  C276  1  0.68309000  0.26134000  0.22541000  1.0
  C  C277  1  0.75713000  0.28372000  0.24747000  1.0
  C  C278  1  0.70121000  0.24416000  0.24948000  1.0
  C  C279  1  0.74272000  0.25693000  0.26209000  1.0
  C  C280  1  0.63791000  0.17164000  0.78224000  1.0
  C  C281  1  0.65319000  0.15610000  0.75522000  1.0
  C  C282  1  0.82113000  0.23544000  0.72218000  1.0
  C  C283  1  0.80668000  0.20827000  0.70619000  1.0
  C  C284  1  0.76561000  0.19525000  0.71975000  1.0
  C  C285  1  0.69317000  0.17117000  0.74234000  1.0
  C  C286  1  0.74879000  0.21088000  0.74512000  1.0
  C  C287  1  0.70820000  0.19725000  0.75789000  1.0
  C  C288  1  0.64600000  0.74710000  0.83285000  1.0
  C  C289  1  0.68854000  0.74942000  0.85067000  1.0
  C  C290  1  0.82912000  0.68669000  0.76823000  1.0
  C  C291  1  0.83936000  0.69920000  0.79767000  1.0
  C  C292  1  0.79722000  0.70981000  0.81198000  1.0
  C  C293  1  0.72645000  0.73321000  0.83690000  1.0
  C  C294  1  0.75547000  0.70590000  0.79531000  1.0
  C  C295  1  0.71525000  0.71899000  0.80947000  1.0
  C  C296  1  0.32928000  0.77870000  0.76791000  1.0
  C  C297  1  0.34326000  0.76132000  0.74171000  1.0
  C  C298  1  0.15421000  0.70753000  0.70539000  1.0
  C  C299  1  0.19890000  0.70165000  0.69082000  1.0
  C  C300  1  0.23519000  0.72055000  0.70302000  1.0
  C  C301  1  0.30293000  0.74877000  0.72673000  1.0
  C  C302  1  0.22070000  0.74015000  0.72626000  1.0
  C  C303  1  0.25911000  0.75592000  0.73979000  1.0
  C  C304  1  0.13220000  0.70762000  0.31166000  1.0
  C  C305  1  0.14559000  0.73659000  0.32434000  1.0
  C  C306  1  0.31143000  0.77150000  0.24536000  1.0
  C  C307  1  0.29225000  0.78890000  0.27003000  1.0
  C  C308  1  0.25365000  0.77345000  0.28355000  1.0
  C  C309  1  0.18460000  0.74924000  0.30862000  1.0
  C  C310  1  0.24189000  0.74526000  0.27052000  1.0
  C  C311  1  0.20213000  0.73152000  0.28472000  1.0
  C  C312  1  0.13510000  0.23825000  0.32737000  1.0
  C  C313  1  0.14859000  0.21039000  0.34252000  1.0
  C  C314  1  0.31520000  0.17315000  0.26477000  1.0
  C  C315  1  0.29983000  0.15721000  0.29150000  1.0
  C  C316  1  0.26052000  0.17256000  0.30494000  1.0
  C  C317  1  0.18918000  0.19717000  0.32850000  1.0
  C  C318  1  0.24625000  0.19929000  0.29012000  1.0
  C  C319  1  0.20636000  0.21326000  0.30350000  1.0
  C  C320  1  0.14541000  0.25653000  0.73097000  1.0
  C  C321  1  0.16191000  0.22938000  0.71605000  1.0
  C  C322  1  0.32254000  0.19154000  0.79791000  1.0
  C  C323  1  0.30681000  0.17570000  0.77133000  1.0
  C  C324  1  0.26873000  0.19147000  0.75747000  1.0
  C  C325  1  0.20057000  0.21634000  0.73187000  1.0
  C  C326  1  0.25411000  0.21818000  0.77228000  1.0
  C  C327  1  0.21485000  0.23220000  0.75784000  1.0
  S  S328  1  0.94254000  0.65847000  0.47737000  1.0
  S  S329  1  0.93397000  0.57639000  0.52446000  1.0
  S  S330  1  0.96964000  0.65960000  0.56493000  1.0
  S  S331  1  0.01348000  0.52377000  0.34559000  1.0
  S  S332  1  0.97883000  0.48027000  0.42619000  1.0
  S  S333  1  0.98046000  0.43588000  0.34266000  1.0
  S  S334  1  0.97955000  0.29437000  0.48035000  1.0
  S  S335  1  0.94690000  0.37743000  0.52204000  1.0
  S  S336  1  0.94881000  0.29406000  0.56709000  1.0
  S  S337  1  0.96606000  0.52353000  0.70886000  1.0
  S  S338  1  0.93628000  0.47694000  0.62892000  1.0
  S  S339  1  0.99265000  0.43418000  0.70539000  1.0
  S  S340  1  0.46395000  0.12911000  0.97992000  1.0
  S  S341  1  0.46796000  0.21481000  0.02119000  1.0
  S  S342  1  0.48894000  0.13202000  0.06605000  1.0
  S  S343  1  0.46834000  0.93402000  0.84692000  1.0
  S  S344  1  0.47227000  0.97577000  0.93164000  1.0
  S  S345  1  0.50241000  0.02049000  0.85092000  1.0
  S  S346  1  0.45084000  0.83230000  0.06378000  1.0
  S  S347  1  0.44313000  0.74706000  0.02181000  1.0
  S  S348  1  0.47455000  0.82867000  0.97743000  1.0
  S  S349  1  0.47454000  0.02426000  0.19393000  1.0
  S  S350  1  0.48513000  0.98130000  0.10998000  1.0
  S  S351  1  0.50351000  0.93676000  0.19227000  1.0
  S  S352  1  0.66909000  0.76873000  0.27309000  1.0
  S  S353  1  0.67625000  0.67471000  0.25793000  1.0
  S  S354  1  0.77771000  0.72266000  0.30735000  1.0
  S  S355  1  0.77927000  0.24881000  0.29199000  1.0
  S  S356  1  0.71835000  0.29324000  0.21821000  1.0
  S  S357  1  0.66779000  0.21200000  0.25535000  1.0
  S  S358  1  0.67386000  0.20360000  0.78907000  1.0
  S  S359  1  0.73027000  0.16354000  0.71170000  1.0
  S  S360  1  0.78293000  0.24229000  0.75269000  1.0
  S  S361  1  0.65678000  0.72536000  0.80024000  1.0
  S  S362  1  0.78662000  0.73012000  0.84515000  1.0
  S  S363  1  0.76794000  0.68940000  0.76110000  1.0
  S  S364  1  0.26726000  0.77784000  0.77146000  1.0
  S  S365  1  0.29635000  0.72200000  0.69786000  1.0
  S  S366  1  0.16121000  0.73561000  0.73336000  1.0
  S  S367  1  0.16933000  0.69850000  0.28109000  1.0
  S  S368  1  0.21643000  0.78286000  0.31339000  1.0
  S  S369  1  0.27980000  0.73718000  0.24103000  1.0
  S  S370  1  0.17332000  0.24545000  0.29697000  1.0
  S  S371  1  0.22344000  0.16468000  0.33552000  1.0
  S  S372  1  0.28028000  0.20578000  0.25881000  1.0
  S  S373  1  0.17929000  0.26372000  0.76351000  1.0
  S  S374  1  0.23476000  0.18391000  0.72556000  1.0
  S  S375  1  0.28851000  0.22459000  0.80383000  1.0
  N  N376  1  0.02181000  0.65178000  0.35315000  1.0
  N  N377  1  0.92420000  0.64744000  0.35165000  1.0
  N  N378  1  0.92858000  0.31172000  0.34541000  1.0
  N  N379  1  0.02223000  0.29969000  0.35702000  1.0
  N  N380  1  0.93236000  0.29718000  0.69096000  1.0
  N  N381  1  0.02828000  0.30787000  0.69188000  1.0
  N  N382  1  0.93214000  0.64994000  0.70350000  1.0
  N  N383  1  0.02604000  0.65486000  0.68614000  1.0
  N  N384  1  0.52827000  0.14124000  0.84507000  1.0
  N  N385  1  0.43279000  0.15063000  0.85350000  1.0
  N  N386  1  0.42692000  0.81228000  0.83748000  1.0
  N  N387  1  0.51934000  0.79986000  0.85530000  1.0
  N  N388  1  0.42588000  0.80912000  0.19056000  1.0
  N  N389  1  0.52312000  0.81341000  0.19617000  1.0
  N  N390  1  0.42461000  0.14446000  0.20108000  1.0
  N  N391  1  0.51706000  0.16115000  0.19122000  1.0
  O  O392  1  0.02050000  0.60564000  0.39223000  1.0
  O  O393  1  0.98227000  0.59623000  0.34823000  1.0
  O  O394  1  0.93136000  0.60911000  0.39793000  1.0
  O  O395  1  0.96707000  0.65486000  0.40539000  1.0
  O  O396  1  0.93476000  0.35691000  0.38536000  1.0
  O  O397  1  0.98879000  0.35940000  0.34768000  1.0
  O  O398  1  0.01635000  0.33964000  0.40221000  1.0
  O  O399  1  0.96237000  0.30155000  0.40407000  1.0
  O  O400  1  0.92646000  0.33942000  0.64791000  1.0
  O  O401  1  0.97817000  0.30099000  0.63826000  1.0
  O  O402  1  0.01188000  0.35533000  0.65601000  1.0
  O  O403  1  0.96992000  0.35593000  0.69950000  1.0
  O  O404  1  0.92559000  0.60347000  0.66549000  1.0
  O  O405  1  0.98440000  0.59860000  0.70008000  1.0
  O  O406  1  0.00628000  0.61426000  0.64321000  1.0
  O  O407  1  0.95902000  0.65608000  0.64293000  1.0
  O  O408  1  0.52514000  0.10350000  0.89248000  1.0
  O  O409  1  0.47271000  0.09294000  0.85501000  1.0
  O  O410  1  0.44170000  0.12083000  0.90577000  1.0
  O  O411  1  0.49156000  0.16108000  0.89967000  1.0
  O  O412  1  0.42372000  0.85200000  0.88320000  1.0
  O  O413  1  0.48477000  0.85900000  0.85065000  1.0
  O  O414  1  0.50112000  0.83240000  0.90476000  1.0
  O  O415  1  0.44933000  0.79376000  0.89557000  1.0
  O  O416  1  0.43448000  0.84024000  0.13907000  1.0
  O  O417  1  0.48002000  0.79751000  0.14242000  1.0
  O  O418  1  0.52050000  0.85300000  0.15026000  1.0
  O  O419  1  0.47265000  0.86475000  0.18975000  1.0
  O  O420  1  0.43370000  0.10586000  0.15473000  1.0
  O  O421  1  0.48855000  0.10008000  0.19179000  1.0
  O  O422  1  0.51316000  0.12875000  0.14016000  1.0
  O  O423  1  0.45595000  0.16489000  0.14523000  1.0
