# generated using pymatgen
data_Co3H62C83N8O17
_symmetry_space_group_name_H-M   'P 1'
_cell_length_a   14.87830000
_cell_length_b   28.52510000
_cell_length_c   28.54580000
_cell_angle_alpha   89.21300000
_cell_angle_beta   79.19600000
_cell_angle_gamma   82.03400000
_symmetry_Int_Tables_number   1
_chemical_formula_structural   Co3H62C83N8O17
_chemical_formula_sum   'Co12 H248 C332 N32 O68'
_cell_volume   11784.46716868
_cell_formula_units_Z   4
loop_
 _symmetry_equiv_pos_site_id
 _symmetry_equiv_pos_as_xyz
  1  'x, y, z'
loop_
 _atom_site_type_symbol
 _atom_site_label
 _atom_site_symmetry_multiplicity
 _atom_site_fract_x
 _atom_site_fract_y
 _atom_site_fract_z
 _atom_site_occupancy
  C  C0  1  0.44746000  0.17292000  0.13207000  1.0
  C  C1  1  0.41994000  0.13400000  0.15694000  1.0
  C  C2  1  0.29930000  0.18351000  0.15192000  1.0
  C  C3  1  0.31460000  0.41072000  0.18717000  1.0
  C  C4  1  0.39460000  0.38043000  0.17362000  1.0
  C  C5  1  0.31964000  0.38528000  0.11651000  1.0
  C  C6  1  0.47874000  0.27282000  0.18702000  1.0
  C  C7  1  0.33460000  0.28785000  0.04395000  1.0
  C  C8  1  0.19050000  0.30325000  0.18410000  1.0
  C  C9  1  0.68618000  0.47399000  0.12628000  1.0
  C  C10  1  0.73176000  0.51261000  0.12772000  1.0
  C  C11  1  0.69942000  0.50698000  0.05802000  1.0
  C  C12  1  0.67048000  0.21826000  0.00841000  1.0
  C  C13  1  0.59882000  0.25501000  0.01643000  1.0
  C  C14  1  0.66240000  0.24791000  0.07777000  1.0
  C  C15  1  0.46818000  0.39644000  0.02729000  1.0
  C  C16  1  0.66330000  0.34618000  0.11627000  1.0
  C  C17  1  0.73588000  0.41616000  0.97633000  1.0
  C  C18  1  0.31054000  0.93664000  0.91313000  1.0
  C  C19  1  0.36944000  0.93594000  0.86943000  1.0
  C  C20  1  0.31218000  0.87061000  0.87796000  1.0
  C  C21  1  0.01598000  0.80032000  0.15900000  1.0
  C  C22  1  0.09394000  0.78849000  0.12538000  1.0
  C  C23  1  0.09554000  0.85775000  0.15106000  1.0
  C  C24  1  0.16794000  0.78747000  0.00369000  1.0
  C  C25  1  0.18150000  0.93126000  0.04829000  1.0
  C  C26  1  0.02820000  0.88313000  0.97950000  1.0
  C  C27  1  0.34966000  0.79035000  0.22793000  1.0
  C  C28  1  0.38480000  0.79098000  0.26952000  1.0
  C  C29  1  0.49710000  0.78670000  0.20982000  1.0
  C  C30  1  0.45958000  0.88214000  0.97554000  1.0
  C  C31  1  0.39160000  0.88462000  0.01519000  1.0
  C  C32  1  0.40498000  0.81601000  0.98320000  1.0
  C  C33  1  0.35936000  0.87271000  0.13069000  1.0
  C  C34  1  0.28680000  0.73720000  0.09818000  1.0
  C  C35  1  0.56690000  0.70577000  0.09346000  1.0
  C  C36  1  0.96068000  0.65366000  0.63272000  1.0
  C  C37  1  0.92634000  0.61809000  0.66078000  1.0
  C  C38  1  0.81232000  0.66486000  0.64218000  1.0
  C  C39  1  0.87906000  0.90331000  0.62764000  1.0
  C  C40  1  0.95410000  0.86876000  0.62429000  1.0
  C  C41  1  0.89004000  0.86270000  0.56387500  1.0
  C  C42  1  0.98880000  0.76569500  0.66659000  1.0
  C  C43  1  0.86336000  0.75363000  0.51973000  1.0
  C  C44  1  0.70714000  0.78365000  0.64785000  1.0
  C  C45  1  0.09516000  0.96898000  0.57448000  1.0
  C  C46  1  0.13942000  0.00726000  0.58038000  1.0
  C  C47  1  0.19664000  0.97560000  0.51171000  1.0
  C  C48  1  0.15878000  0.65395000  0.51438000  1.0
  C  C49  1  0.09652000  0.69418000  0.51313000  1.0
  C  C50  1  0.18124000  0.70517000  0.56377000  1.0
  C  C51  1  0.10208000  0.80203000  0.46500000  1.0
  C  C52  1  0.19798000  0.82955000  0.58076000  1.0
  C  C53  1  0.26334000  0.86866000  0.43586000  1.0
  C  C54  1  0.78758000  0.40882000  0.44444000  1.0
  C  C55  1  0.85092000  0.41349000  0.40333000  1.0
  C  C56  1  0.82082000  0.34195000  0.40759000  1.0
  C  C57  1  0.54216000  0.24138000  0.68400000  1.0
  C  C58  1  0.61354000  0.23711000  0.64532000  1.0
  C  C59  1  0.60780000  0.30403000  0.67843000  1.0
  C  C60  1  0.67744000  0.24735000  0.52554000  1.0
  C  C61  1  0.66978000  0.39137000  0.57843000  1.0
  C  C62  1  0.52588000  0.34366000  0.50734000  1.0
  C  C63  1  0.84740000  0.24992000  0.75129000  1.0
  C  C64  1  0.88122000  0.25226000  0.79320000  1.0
  C  C65  1  0.99174000  0.25693000  0.73399000  1.0
  C  C66  1  0.94754000  0.35992000  0.50171000  1.0
  C  C67  1  0.87750000  0.35861000  0.53992000  1.0
  C  C68  1  0.90984000  0.28991000  0.50733500  1.0
  C  C69  1  0.86430000  0.33678000  0.65378000  1.0
  C  C70  1  0.80958000  0.19946000  0.61177000  1.0
  C  C71  1  0.07150000  0.17497000  0.61311000  1.0
  C  C72  1  0.13522000  0.31965000  0.14801000  1.0
  C  C73  1  0.08988000  0.36608000  0.15140000  1.0
  C  C74  1  0.02886000  0.38166000  0.12121000  1.0
  C  C75  1  0.01802000  0.35240000  0.08397000  1.0
  C  C76  1  0.06274000  0.30534000  0.08138000  1.0
  C  C77  1  0.11376000  0.28835000  0.11576000  1.0
  C  C78  1  0.81378000  0.39990000  0.99944000  1.0
  C  C79  1  0.83760000  0.35168000  0.00639000  1.0
  C  C80  1  0.90644000  0.33645000  0.03213000  1.0
  C  C81  1  0.95322000  0.36922000  0.05137000  1.0
  C  C82  1  0.93616000  0.41766000  0.03894000  1.0
  C  C83  1  0.86754000  0.43218000  0.01243000  1.0
  C  C84  1  0.06188000  0.45613000  0.01967000  1.0
  C  C85  1  0.94082000  0.87163000  0.96885000  1.0
  C  C86  1  0.85920000  0.88774000  0.00089000  1.0
  C  C87  1  0.78322000  0.86389000  0.00471000  1.0
  C  C88  1  0.78558000  0.82442000  0.97521000  1.0
  C  C89  1  0.86128000  0.81419500  0.93725000  1.0
  C  C90  1  0.93950000  0.83699000  0.93466000  1.0
  C  C91  1  0.60986000  0.73355000  0.05325000  1.0
  C  C92  1  0.57594000  0.78085000  0.04629000  1.0
  C  C93  1  0.62896000  0.80885000  0.01526000  1.0
  C  C94  1  0.71784000  0.79069000  0.99076000  1.0
  C  C95  1  0.74702000  0.74143000  0.99295000  1.0
  C  C96  1  0.69300000  0.71361000  0.02426000  1.0
  C  C97  1  0.82456000  0.69768000  0.92860000  1.0
  C  C98  1  0.33236000  0.84805000  0.46350000  1.0
  C  C99  1  0.36496000  0.79940000  0.46088000  1.0
  C  C100  1  0.43658000  0.78095000  0.48432000  1.0
  C  C101  1  0.47680000  0.81117000  0.51035000  1.0
  C  C102  1  0.44346000  0.85985000  0.51234000  1.0
  C  C103  1  0.37414000  0.87809000  0.48826000  1.0
  C  C104  1  0.66246000  0.78350000  0.60655000  1.0
  C  C105  1  0.67258000  0.81929000  0.57312000  1.0
  C  C106  1  0.62028000  0.82389000  0.53753000  1.0
  C  C107  1  0.55288000  0.79412000  0.53609000  1.0
  C  C108  1  0.54938000  0.75473000  0.56678000  1.0
  C  C109  1  0.60256000  0.75060000  0.60277000  1.0
  C  C110  1  0.53564000  0.68162000  0.54163000  1.0
  C  C111  1  0.10294000  0.20460000  0.57184000  1.0
  C  C112  1  0.07066000  0.25302000  0.57053000  1.0
  C  C113  1  0.11980000  0.28258000  0.53956000  1.0
  C  C114  1  0.20454000  0.26482000  0.51053000  1.0
  C  C115  1  0.22908000  0.21550000  0.50692000  1.0
  C  C116  1  0.17746000  0.18574000  0.53658000  1.0
  C  C117  1  0.43674000  0.33827000  0.49478000  1.0
  C  C118  1  0.35756000  0.35322000  0.52864500  1.0
  C  C119  1  0.27914000  0.33214000  0.53037000  1.0
  C  C120  1  0.27612000  0.29676000  0.49701500  1.0
  C  C121  1  0.34948000  0.28873000  0.45700000  1.0
  C  C122  1  0.42990000  0.31003000  0.45615000  1.0
  C  C123  1  0.40516000  0.22216000  0.40986000  1.0
  C  C124  1  0.09694000  0.75427000  0.01884000  1.0
  C  C125  1  0.00400000  0.76755000  0.04144000  1.0
  C  C126  1  0.94270000  0.73303000  0.05186000  1.0
  C  C127  1  0.97156000  0.68477000  0.03831000  1.0
  C  C128  1  0.06334000  0.67259000  0.01511000  1.0
  C  C129  1  0.12336000  0.70652000  0.00475000  1.0
  C  C130  1  0.79150000  0.57386000  0.07152000  1.0
  C  C131  1  0.80076000  0.60680000  0.10626000  1.0
  C  C132  1  0.85636000  0.64303000  0.09488000  1.0
  C  C133  1  0.90828000  0.64683000  0.04874000  1.0
  C  C134  1  0.89976000  0.61351000  0.01354000  1.0
  C  C135  1  0.83882000  0.57913000  0.02474000  1.0
  C  C136  1  0.01776000  0.57636000  0.95788000  1.0
  C  C137  1  0.53562000  0.82368000  0.91207000  1.0
  C  C138  1  0.57542000  0.77620000  0.90384000  1.0
  C  C139  1  0.64716000  0.76342000  0.86435000  1.0
  C  C140  1  0.68012000  0.79761000  0.83134000  1.0
  C  C141  1  0.63578000  0.84454000  0.83887000  1.0
  C  C142  1  0.56730000  0.85737000  0.87883000  1.0
  C  C143  1  0.90924000  0.77153000  0.70844000  1.0
  C  C144  1  0.88752000  0.81487000  0.73337000  1.0
  C  C145  1  0.81630000  0.82199000  0.77336000  1.0
  C  C146  1  0.76106000  0.78642000  0.78994000  1.0
  C  C147  1  0.78506000  0.74174000  0.76601000  1.0
  C  C148  1  0.86116000  0.73433000  0.72755000  1.0
  C  C149  1  0.66094000  0.70646000  0.75811000  1.0
  C  C150  1  0.62224000  0.43844000  0.59597000  1.0
  C  C151  1  0.64984000  0.47837000  0.57096000  1.0
  C  C152  1  0.58772000  0.51988000  0.57118000  1.0
  C  C153  1  0.49694000  0.52239000  0.59678000  1.0
  C  C154  1  0.47244000  0.48444000  0.62622000  1.0
  C  C155  1  0.53488000  0.44259000  0.62580000  1.0
  C  C156  1  0.28410000  0.62717000  0.55974000  1.0
  C  C157  1  0.33750000  0.59430000  0.52600000  1.0
  C  C158  1  0.40696000  0.56117000  0.53848000  1.0
  C  C159  1  0.42484000  0.55980000  0.58511000  1.0
  C  C160  1  0.37260000  0.59310000  0.61921000  1.0
  C  C161  1  0.30218000  0.62628000  0.60645000  1.0
  C  C162  1  0.44984000  0.62634000  0.66805000  1.0
  C  C163  1  0.03556000  0.25845000  0.81538000  1.0
  C  C164  1  0.02066000  0.23626000  0.86009000  1.0
  C  C165  1  0.08036000  0.23880000  0.89253000  1.0
  C  C166  1  0.15612000  0.26424000  0.88172000  1.0
  C  C167  1  0.17186000  0.28609000  0.83689000  1.0
  C  C168  1  0.11298000  0.28285000  0.80402000  1.0
  C  C169  1  0.30252000  0.28365000  0.99762500  1.0
  C  C170  1  0.29982000  0.23831000  0.97949000  1.0
  C  C171  1  0.25446000  0.23218000  0.94141000  1.0
  C  C172  1  0.21232000  0.27131000  0.91917000  1.0
  C  C173  1  0.21640000  0.31708000  0.93641000  1.0
  C  C174  1  0.25766000  0.32273000  0.97656000  1.0
  C  C175  1  0.08687000  0.36824000  0.93213000  1.0
  C  C176  1  0.03894000  0.30491000  0.43811000  1.0
  C  C177  1  0.08210000  0.25818000  0.42733000  1.0
  C  C178  1  0.15640000  0.24853000  0.38844000  1.0
  C  C179  1  0.18710000  0.28519000  0.35826000  1.0
  C  C180  1  0.14078000  0.33132000  0.36830000  1.0
  C  C181  1  0.06983000  0.34105000  0.40773000  1.0
  C  C182  1  0.40590000  0.27274000  0.23164000  1.0
  C  C183  1  0.39452000  0.30967000  0.26519000  1.0
  C  C184  1  0.32634000  0.31223000  0.30644000  1.0
  C  C185  1  0.26732000  0.27732000  0.31672000  1.0
  C  C186  1  0.28506000  0.23712000  0.28597000  1.0
  C  C187  1  0.35644000  0.23450000  0.24517000  1.0
  C  C188  1  0.15502000  0.20757000  0.27707000  1.0
  C  C189  1  0.82154000  0.75689000  0.47548000  1.0
  C  C190  1  0.81098000  0.79936000  0.45029000  1.0
  C  C191  1  0.75958000  0.80413000  0.41322000  1.0
  C  C192  1  0.71822000  0.76632000  0.39957000  1.0
  C  C193  1  0.72738000  0.72399000  0.42523000  1.0
  C  C194  1  0.77782000  0.71943000  0.46265000  1.0
  C  C195  1  0.54138000  0.78469000  0.29208000  1.0
  C  C196  1  0.51328000  0.80519000  0.33805000  1.0
  C  C197  1  0.57166000  0.79992000  0.37180000  1.0
  C  C198  1  0.65916000  0.77249000  0.36169000  1.0
  C  C199  1  0.68928000  0.75240000  0.31528000  1.0
  C  C200  1  0.63136000  0.75949000  0.28075000  1.0
  C  C201  1  0.77366000  0.67945000  0.30438000  1.0
  C  C202  1  0.27176000  0.04556000  0.53647000  1.0
  C  C203  1  0.30868000  0.06396000  0.49203000  1.0
  C  C204  1  0.36778000  0.09939000  0.48875000  1.0
  C  C205  1  0.39392000  0.11736000  0.52969000  1.0
  C  C206  1  0.35804000  0.09815000  0.57389000  1.0
  C  C207  1  0.29864000  0.06313000  0.57719000  1.0
  C  C208  1  0.59632000  0.21901000  0.52596000  1.0
  C  C209  1  0.51188000  0.22475000  0.55892000  1.0
  C  C210  1  0.44698000  0.19214000  0.56017000  1.0
  C  C211  1  0.46094000  0.15413000  0.52671000  1.0
  C  C212  1  0.54152000  0.15101000  0.49095000  1.0
  C  C213  1  0.60688000  0.18252000  0.49110000  1.0
  C  C214  1  0.59934000  0.07543000  0.46464000  1.0
  C  C215  1  0.13352000  0.97918000  0.06460000  1.0
  C  C216  1  0.15496000  0.01842000  0.03653000  1.0
  C  C217  1  0.09298000  0.06052000  0.03994000  1.0
  C  C218  1  0.00688000  0.06453000  0.07116000  1.0
  C  C219  1  0.98858000  0.02659000  0.10210000  1.0
  C  C220  1  0.05128000  0.98440000  0.09888000  1.0
  C  C221  1  0.78678000  0.17785000  0.05402000  1.0
  C  C222  1  0.84704000  0.15485000  0.01460000  1.0
  C  C223  1  0.91820000  0.11908000  0.02073000  1.0
  C  C224  1  0.93292000  0.10516000  0.06652000  1.0
  C  C225  1  0.87472000  0.12927000  0.10644000  1.0
  C  C226  1  0.80172000  0.16463000  0.09998000  1.0
  C  C227  1  0.94418000  0.15027000  0.16526000  1.0
  C  C228  1  0.25044000  0.46384000  0.13385000  1.0
  C  C229  1  0.16268000  0.48199000  0.12550000  1.0
  C  C230  1  0.14876000  0.52702000  0.10627000  1.0
  C  C231  1  0.22374000  0.55248000  0.09413000  1.0
  C  C232  1  0.31116000  0.53386000  0.10245000  1.0
  C  C233  1  0.32400000  0.49029000  0.12257000  1.0
  C  C234  1  0.25820000  0.69183000  0.09220000  1.0
  C  C235  1  0.19206000  0.67549000  0.12761000  1.0
  C  C236  1  0.16510000  0.63177000  0.12232000  1.0
  C  C237  1  0.21102000  0.60241000  0.08388000  1.0
  C  C238  1  0.27436000  0.61961000  0.04673000  1.0
  C  C239  1  0.29664000  0.66491000  0.05095000  1.0
  C  C240  1  0.28150000  0.58749000  0.97358000  1.0
  C  C241  1  0.42330000  0.87578000  0.80274000  1.0
  C  C242  1  0.45716000  0.90640500  0.76699000  1.0
  C  C243  1  0.47370000  0.89162000  0.71935000  1.0
  C  C244  1  0.44698000  0.84838000  0.70753000  1.0
  C  C245  1  0.43740000  0.81428000  0.74363000  1.0
  C  C246  1  0.42768000  0.82781000  0.79093000  1.0
  C  C247  1  0.26680000  0.83273000  0.61047000  1.0
  C  C248  1  0.31984000  0.79299000  0.62489000  1.0
  C  C249  1  0.38734000  0.79846000  0.65151000  1.0
  C  C250  1  0.40212000  0.84382000  0.66528000  1.0
  C  C251  1  0.35290000  0.88399000  0.64673000  1.0
  C  C252  1  0.28510000  0.87783000  0.62069000  1.0
  C  C253  1  0.42170000  0.94722000  0.61786000  1.0
  C  C254  1  0.80666000  0.38150000  0.66869000  1.0
  C  C255  1  0.83496000  0.42248000  0.64708000  1.0
  C  C256  1  0.78958000  0.46629000  0.66321000  1.0
  C  C257  1  0.71918000  0.47043000  0.70388000  1.0
  C  C258  1  0.69340000  0.42972000  0.72769000  1.0
  C  C259  1  0.73834000  0.38517000  0.71035000  1.0
  C  C260  1  0.76960000  0.59828000  0.69445000  1.0
  C  C261  1  0.69204000  0.58891000  0.67686000  1.0
  C  C262  1  0.64916000  0.54983000  0.69340000  1.0
  C  C263  1  0.68962000  0.51817000  0.72409000  1.0
  C  C264  1  0.75068000  0.53443000  0.75056000  1.0
  C  C265  1  0.79074000  0.57496000  0.73533000  1.0
  C  C266  1  0.86128000  0.48176000  0.77640000  1.0
  C  C267  1  0.46014000  0.38203000  0.97944000  1.0
  C  C268  1  0.52766000  0.34894000  0.95268000  1.0
  C  C269  1  0.51710000  0.33462000  0.90793000  1.0
  C  C270  1  0.44120000  0.35511000  0.88839000  1.0
  C  C271  1  0.37866000  0.39166000  0.91313000  1.0
  C  C272  1  0.38796000  0.40495000  0.95852000  1.0
  C  C273  1  0.48348000  0.30245000  0.74832000  1.0
  C  C274  1  0.46228000  0.27207000  0.78655000  1.0
  C  C275  1  0.43704000  0.29036000  0.83280000  1.0
  C  C276  1  0.43222000  0.33913000  0.84108000  1.0
  C  C277  1  0.43996000  0.37030000  0.80233000  1.0
  C  C278  1  0.46632000  0.35162000  0.75614000  1.0
  C  C279  1  0.34664000  0.44009000  0.80226000  1.0
  C  C280  1  0.92604000  0.35977000  0.33387000  1.0
  C  C281  1  0.94086000  0.39610000  0.30089000  1.0
  C  C282  1  0.94044000  0.38732000  0.25317000  1.0
  C  C283  1  0.92154000  0.34311000  0.23982000  1.0
  C  C284  1  0.93480000  0.30439000  0.26946000  1.0
  C  C285  1  0.93958000  0.31273000  0.31671000  1.0
  C  C286  1  0.72488000  0.33954000  0.15019000  1.0
  C  C287  1  0.80914000  0.30984000  0.13992000  1.0
  C  C288  1  0.87300000  0.31007000  0.16984000  1.0
  C  C289  1  0.85464000  0.34196000  0.20838000  1.0
  C  C290  1  0.76566000  0.36841000  0.22118000  1.0
  C  C291  1  0.70028000  0.36539000  0.19278000  1.0
  C  C292  1  0.73656000  0.44318000  0.25310000  1.0
  C  C293  1  0.95820000  0.86639000  0.21756000  1.0
  C  C294  1  0.88750000  0.84316000  0.24345000  1.0
  C  C295  1  0.86604000  0.84789000  0.29287000  1.0
  C  C296  1  0.91538000  0.87573000  0.31608000  1.0
  C  C297  1  0.96524000  0.90853000  0.28953000  1.0
  C  C298  1  0.98578000  0.90419000  0.23999000  1.0
  C  C299  1  0.04748000  0.82178000  0.42952000  1.0
  C  C300  1  0.04368000  0.79308000  0.39078000  1.0
  C  C301  1  0.99456000  0.81022000  0.35608000  1.0
  C  C302  1  0.94822000  0.85674000  0.35893000  1.0
  C  C303  1  0.94826000  0.88551000  0.39856000  1.0
  C  C304  1  0.99752000  0.86775000  0.43397000  1.0
  C  C305  1  0.81144000  0.93184000  0.42354000  1.0
  C  C306  1  0.78702000  0.15504000  0.59725000  1.0
  C  C307  1  0.74346000  0.12482000  0.63005000  1.0
  C  C308  1  0.71204000  0.08581000  0.61320000  1.0
  C  C309  1  0.72292000  0.07780000  0.56363000  1.0
  C  C310  1  0.75768000  0.11115000  0.53176000  1.0
  C  C311  1  0.79582000  0.14721000  0.54824000  1.0
  C  C312  1  0.79656000  0.93740000  0.56703000  1.0
  C  C313  1  0.70302000  0.95407000  0.58121000  1.0
  C  C314  1  0.67062000  0.99989000  0.56944000  1.0
  C  C315  1  0.73424000  0.02902000  0.54685000  1.0
  C  C316  1  0.82522000  0.00897000  0.52572000  1.0
  C  C317  1  0.85470000  0.96278000  0.53574000  1.0
  C  C318  1  0.90904000  0.03324000  0.45692000  1.0
  C  C319  1  0.29546000  0.91219000  0.15443000  1.0
  C  C320  1  0.29752000  0.95669000  0.13396000  1.0
  C  C321  1  0.24948000  0.99624000  0.15879000  1.0
  C  C322  1  0.20480000  0.99278000  0.20652000  1.0
  C  C323  1  0.20254000  0.94825000  0.22753000  1.0
  C  C324  1  0.24678000  0.90786000  0.20119000  1.0
  C  C325  1  0.26966000  0.11404000  0.20201000  1.0
  C  C326  1  0.17874000  0.11173000  0.19628000  1.0
  C  C327  1  0.13448000  0.07391000  0.21552000  1.0
  C  C328  1  0.18626000  0.03645000  0.23525000  1.0
  C  C329  1  0.26318000  0.04643000  0.25382000  1.0
  C  C330  1  0.30590000  0.08552000  0.23627000  1.0
  C  C331  1  0.38238000  0.98850000  0.26213000  1.0
  Co  Co332  1  0.36506000  0.26976000  0.11783000  1.0
  Co  Co333  1  0.59860000  0.41996000  0.06543000  1.0
  Co  Co334  1  0.49668000  0.32229000  0.09313000  1.0
  Co  Co335  1  0.22152000  0.86414000  0.97229000  1.0
  Co  Co336  1  0.41660000  0.77953000  0.12282000  1.0
  Co  Co337  1  0.25110000  0.83273000  0.07079000  1.0
  Co  Co338  1  0.88934000  0.74441000  0.59551000  1.0
  Co  Co339  1  0.10730000  0.88391000  0.51736000  1.0
  Co  Co340  1  0.03658000  0.78719000  0.56254000  1.0
  Co  Co341  1  0.71832000  0.32807000  0.49835000  1.0
  Co  Co342  1  0.92086000  0.24485000  0.64627000  1.0
  Co  Co343  1  0.75450000  0.29516500  0.59405000  1.0
  H  H344  1  0.51778000  0.17976000  0.11993000  1.0
  H  H345  1  0.46484000  0.10373000  0.16678000  1.0
  H  H346  1  0.22886000  0.20105000  0.15848000  1.0
  H  H347  1  0.30104000  0.43439000  0.21787000  1.0
  H  H348  1  0.45064000  0.37449000  0.19295000  1.0
  H  H349  1  0.30538000  0.38322000  0.08078000  1.0
  H  H350  1  0.66692000  0.45113000  0.15563000  1.0
  H  H351  1  0.75770000  0.52379000  0.15818000  1.0
  H  H352  1  0.69362000  0.51439000  0.02128000  1.0
  H  H353  1  0.68774000  0.19497000  0.97743000  1.0
  H  H354  1  0.54918000  0.26371000  0.99347000  1.0
  H  H355  1  0.67338000  0.25178000  0.11376000  1.0
  H  H356  1  0.30044000  0.96345000  0.94076000  1.0
  H  H357  1  0.41100000  0.96319000  0.85578000  1.0
  H  H358  1  0.29870000  0.83490000  0.87277000  1.0
  H  H359  1  0.96474000  0.77721000  0.17126000  1.0
  H  H360  1  0.10950000  0.75610000  0.10569000  1.0
  H  H361  1  0.11618000  0.89183000  0.15536000  1.0
  H  H362  1  0.27810000  0.78968000  0.22547000  1.0
  H  H363  1  0.34484000  0.79124000  0.30543000  1.0
  H  H364  1  0.56636000  0.78311000  0.18872000  1.0
  H  H365  1  0.50076000  0.90998000  0.96344000  1.0
  H  H366  1  0.36974000  0.91507000  0.03813000  1.0
  H  H367  1  0.39392000  0.78016000  0.97650000  1.0
  H  H368  1  0.03228000  0.65911000  0.62310000  1.0
  H  H369  1  0.96636000  0.58919000  0.67604000  1.0
  H  H370  1  0.74284000  0.68098000  0.64043000  1.0
  H  H371  1  0.86156000  0.93271000  0.65287000  1.0
  H  H372  1  0.00322000  0.86380000  0.64803000  1.0
  H  H373  1  0.88168000  0.85397000  0.52841000  1.0
  H  H374  1  0.04378000  0.95534000  0.60106000  1.0
  H  H375  1  0.12586000  0.02956000  0.61203000  1.0
  H  H376  1  0.23982000  0.96860000  0.47690000  1.0
  H  H377  1  0.16264000  0.62146000  0.49442000  1.0
  H  H378  1  0.04320000  0.69859000  0.49179000  1.0
  H  H379  1  0.20586000  0.72038000  0.59247000  1.0
  H  H380  1  0.76150000  0.43558000  0.47188000  1.0
  H  H381  1  0.87966000  0.44545000  0.39161000  1.0
  H  H382  1  0.82178000  0.30469000  0.40048000  1.0
  H  H383  1  0.49570000  0.21570000  0.69578000  1.0
  H  H384  1  0.62892000  0.20822000  0.62015000  1.0
  H  H385  1  0.62074000  0.33912000  0.68517000  1.0
  H  H386  1  0.77768000  0.24539000  0.74820000  1.0
  H  H387  1  0.84164000  0.25063000  0.82901000  1.0
  H  H388  1  0.06012000  0.25836000  0.71311000  1.0
  H  H389  1  0.98102000  0.39070500  0.49080000  1.0
  H  H390  1  0.84574000  0.38864000  0.56181000  1.0
  H  H391  1  0.90936000  0.25278000  0.50020000  1.0
  H  H392  1  0.05628000  0.28075000  0.05410000  1.0
  H  H393  1  0.09856000  0.38974000  0.17908000  1.0
  H  H394  1  0.98814000  0.41606000  0.12854000  1.0
  H  H395  1  0.13812000  0.25084000  0.11620000  1.0
  H  H396  1  0.79950000  0.32602000  0.99411000  1.0
  H  H397  1  0.91886000  0.29895000  0.03860000  1.0
  H  H398  1  0.85542000  0.46898000  0.00278000  1.0
  H  H399  1  0.04564000  0.46301000  0.98341000  1.0
  H  H400  1  0.11522000  0.42463000  0.01968000  1.0
  H  H401  1  0.09198000  0.48720000  0.02929000  1.0
  H  H402  1  0.86344000  0.78662000  0.91149000  1.0
  H  H403  1  0.85724000  0.91540000  0.02689000  1.0
  H  H404  1  0.72676000  0.87382000  0.03426000  1.0
  H  H405  1  0.00100000  0.82474000  0.90864000  1.0
  H  H406  1  0.51154000  0.79752000  0.06664000  1.0
  H  H407  1  0.60392000  0.84616000  0.01399000  1.0
  H  H408  1  0.71978000  0.67675000  0.02789000  1.0
  H  H409  1  0.79226000  0.72223000  0.90410000  1.0
  H  H410  1  0.78542000  0.66708000  0.93723000  1.0
  H  H411  1  0.89464000  0.68370000  0.90910000  1.0
  H  H412  1  0.47140000  0.88438000  0.53239000  1.0
  H  H413  1  0.33684000  0.77593000  0.43971000  1.0
  H  H414  1  0.46212000  0.74366000  0.48034000  1.0
  H  H415  1  0.35454000  0.91584000  0.48882000  1.0
  H  H416  1  0.71734000  0.84519000  0.57597000  1.0
  H  H417  1  0.62754000  0.85332000  0.51332000  1.0
  H  H418  1  0.59420000  0.72274000  0.62881000  1.0
  H  H419  1  0.48450000  0.65868000  0.53553000  1.0
  H  H420  1  0.58144000  0.66148000  0.56388000  1.0
  H  H421  1  0.57648000  0.68897000  0.50597000  1.0
  H  H422  1  0.29282000  0.19970000  0.48542000  1.0
  H  H423  1  0.01230000  0.26940000  0.59536000  1.0
  H  H424  1  0.09634000  0.32027000  0.54226000  1.0
  H  H425  1  0.20098000  0.14822000  0.53504000  1.0
  H  H426  1  0.35946000  0.37707000  0.55759000  1.0
  H  H427  1  0.22502000  0.34052000  0.56129000  1.0
  H  H428  1  0.48912000  0.30110000  0.42773000  1.0
  H  H429  1  0.46410000  0.22881000  0.38156000  1.0
  H  H430  1  0.37200000  0.19348000  0.39717000  1.0
  H  H431  1  0.43252000  0.20915000  0.44212000  1.0
  H  H432  1  0.09034000  0.63636000  0.00558000  1.0
  H  H433  1  0.97906000  0.80419000  0.05138000  1.0
  H  H434  1  0.87220000  0.74424000  0.06974000  1.0
  H  H435  1  0.19240000  0.69505000  0.98537000  1.0
  H  H436  1  0.76440000  0.60472000  0.14263000  1.0
  H  H437  1  0.86090000  0.66743000  0.12282000  1.0
  H  H438  1  0.83268000  0.55484000  0.99708000  1.0
  H  H439  1  0.98986000  0.54595000  0.94459000  1.0
  H  H440  1  0.05006000  0.56495000  0.98926000  1.0
  H  H441  1  0.07348000  0.58612000  0.92939000  1.0
  H  H442  1  0.65384000  0.87217000  0.81397000  1.0
  H  H443  1  0.55406000  0.74931000  0.92903000  1.0
  H  H444  1  0.67774000  0.72681000  0.86110000  1.0
  H  H445  1  0.53892000  0.89432000  0.88345000  1.0
  H  H446  1  0.92694000  0.84359000  0.72251000  1.0
  H  H447  1  0.80570000  0.85589000  0.79157000  1.0
  H  H448  1  0.88276000  0.69918000  0.71343000  1.0
  H  H449  1  0.68150000  0.70577000  0.71865000  1.0
  H  H450  1  0.60950000  0.73824000  0.77004000  1.0
  H  H451  1  0.62628000  0.67481000  0.76822000  1.0
  H  H452  1  0.40250000  0.48549000  0.64603000  1.0
  H  H453  1  0.71690000  0.47602000  0.54774000  1.0
  H  H454  1  0.60828000  0.54877000  0.54840000  1.0
  H  H455  1  0.51130000  0.41200000  0.64459000  1.0
  H  H456  1  0.32592000  0.59443000  0.48967000  1.0
  H  H457  1  0.44626000  0.53599000  0.51167000  1.0
  H  H458  1  0.26140000  0.65107000  0.63320000  1.0
  H  H459  1  0.41544000  0.66322000  0.66469000  1.0
  H  H460  1  0.51458000  0.61924000  0.64080000  1.0
  H  H461  1  0.46978000  0.62357000  0.70364000  1.0
  H  H462  1  0.22914000  0.30624000  0.82751000  1.0
  H  H463  1  0.96266000  0.21676000  0.87006000  1.0
  H  H464  1  0.06542000  0.22207000  0.92690000  1.0
  H  H465  1  0.12658000  0.30059000  0.77017000  1.0
  H  H466  1  0.32994000  0.20719000  0.99619000  1.0
  H  H467  1  0.25146000  0.19661000  0.92956000  1.0
  H  H468  1  0.25152000  0.35756000  0.99227000  1.0
  H  H469  1  0.07270000  0.36892000  0.97157000  1.0
  H  H470  1  0.04570000  0.34341000  0.91884000  1.0
  H  H471  1  0.06332000  0.40412000  0.91989000  1.0
  H  H472  1  0.15932000  0.36052000  0.34554000  1.0
  H  H473  1  0.06142000  0.22944000  0.45017000  1.0
  H  H474  1  0.19122000  0.21260000  0.38317000  1.0
  H  H475  1  0.03828000  0.37745000  0.41373000  1.0
  H  H476  1  0.43914000  0.33684000  0.26005000  1.0
  H  H477  1  0.32006000  0.34202000  0.33055000  1.0
  H  H478  1  0.37372000  0.20231000  0.22478000  1.0
  H  H479  1  0.17002000  0.21270000  0.23791000  1.0
  H  H480  1  0.10704000  0.23834000  0.29477000  1.0
  H  H481  1  0.11858000  0.17606000  0.28371000  1.0
  H  H482  1  0.69266000  0.69486000  0.41760000  1.0
  H  H483  1  0.83780000  0.82978000  0.46109000  1.0
  H  H484  1  0.75024000  0.83780000  0.39572000  1.0
  H  H485  1  0.78090000  0.68672000  0.48240000  1.0
  H  H486  1  0.44594000  0.82590000  0.34784000  1.0
  H  H487  1  0.54814000  0.81729000  0.40621000  1.0
  H  H488  1  0.65610000  0.74392000  0.24550000  1.0
  H  H489  1  0.74216000  0.66777000  0.27483000  1.0
  H  H490  1  0.73586000  0.66846000  0.33935000  1.0
  H  H491  1  0.84528000  0.66068000  0.29966000  1.0
  H  H492  1  0.37676000  0.10985000  0.60625000  1.0
  H  H493  1  0.28934000  0.05214000  0.45989000  1.0
  H  H494  1  0.39062000  0.11365000  0.45393000  1.0
  H  H495  1  0.27382000  0.04962000  0.61215000  1.0
  H  H496  1  0.49648000  0.25372000  0.58447000  1.0
  H  H497  1  0.38474000  0.19704000  0.58724000  1.0
  H  H498  1  0.66742000  0.17768000  0.46298000  1.0
  H  H499  1  0.57978000  0.06568000  0.50287000  1.0
  H  H500  1  0.67508000  0.07448000  0.45401000  1.0
  H  H501  1  0.57928000  0.04764000  0.44344000  1.0
  H  H502  1  0.92266000  0.02799000  0.12621000  1.0
  H  H503  1  0.21728000  0.01544000  0.00950000  1.0
  H  H504  1  0.11032000  0.08913000  0.01606000  1.0
  H  H505  1  0.03100000  0.95452000  0.12003000  1.0
  H  H506  1  0.83928000  0.16436000  0.97861000  1.0
  H  H507  1  0.96086000  0.10150000  0.98921000  1.0
  H  H508  1  0.75686000  0.18150000  0.13121000  1.0
  H  H509  1  0.90818000  0.18741000  0.16774000  1.0
  H  H510  1  0.01196000  0.14792000  0.14024000  1.0
  H  H511  1  0.95824000  0.14072000  0.20123000  1.0
  H  H512  1  0.36894000  0.55400000  0.09561000  1.0
  H  H513  1  0.10554000  0.46215000  0.13457000  1.0
  H  H514  1  0.08008000  0.54236000  0.10181000  1.0
  H  H515  1  0.39238000  0.47653000  0.12880000  1.0
  H  H516  1  0.16236000  0.69631000  0.15967000  1.0
  H  H517  1  0.11844000  0.61836000  0.15166000  1.0
  H  H518  1  0.34864000  0.67763000  0.02377000  1.0
  H  H519  1  0.27118000  0.62264000  0.95648000  1.0
  H  H520  1  0.21496000  0.57312000  0.98484000  1.0
  H  H521  1  0.32508000  0.56277000  0.94612000  1.0
  H  H522  1  0.42468000  0.77878000  0.73713000  1.0
  H  H523  1  0.46290000  0.94268000  0.77515000  1.0
  H  H524  1  0.49706000  0.91629000  0.69239000  1.0
  H  H525  1  0.41263000  0.80166000  0.81802000  1.0
  H  H526  1  0.31022000  0.75777000  0.61549000  1.0
  H  H527  1  0.42546000  0.76661000  0.66274000  1.0
  H  H528  1  0.24564000  0.90907000  0.60877000  1.0
  H  H529  1  0.38648000  0.95310000  0.58666000  1.0
  H  H530  1  0.48884000  0.92353000  0.60775000  1.0
  H  H531  1  0.43792000  0.98203000  0.62813000  1.0
  H  H532  1  0.64280000  0.43254000  0.76056000  1.0
  H  H533  1  0.89522000  0.42088000  0.61887000  1.0
  H  H534  1  0.81438000  0.49738000  0.64587000  1.0
  H  H535  1  0.72314000  0.35390000  0.73062000  1.0
  H  H536  1  0.67256000  0.60778000  0.64634000  1.0
  H  H537  1  0.59978000  0.53865000  0.67395000  1.0
  H  H538  1  0.84462000  0.58526000  0.75222000  1.0
  H  H539  1  0.91640000  0.50318000  0.76053000  1.0
  H  H540  1  0.85889000  0.45216000  0.75201000  1.0
  H  H541  1  0.88142000  0.46559000  0.80913000  1.0
  H  H542  1  0.32078000  0.40868000  0.89846000  1.0
  H  H543  1  0.58936000  0.33496000  0.96588000  1.0
  H  H544  1  0.56922000  0.30815000  0.88812000  1.0
  H  H545  1  0.33688000  0.43216000  0.97787000  1.0
  H  H546  1  0.47464000  0.23404000  0.78133000  1.0
  H  H547  1  0.42990000  0.26609000  0.86240000  1.0
  H  H548  1  0.47986000  0.37558000  0.72671000  1.0
  H  H549  1  0.28864000  0.42272000  0.82253000  1.0
  H  H550  1  0.34354000  0.44073000  0.76355000  1.0
  H  H551  1  0.33620000  0.47732000  0.81514000  1.0
  H  H552  1  0.92578000  0.26925000  0.25882000  1.0
  H  H553  1  0.93772000  0.43236000  0.31237000  1.0
  H  H554  1  0.93736000  0.41697000  0.22915000  1.0
  H  H555  1  0.93844000  0.28316000  0.34086000  1.0
  H  H556  1  0.82484000  0.28630000  0.10926000  1.0
  H  H557  1  0.93680000  0.28593000  0.16280000  1.0
  H  H558  1  0.63200000  0.38556000  0.20265000  1.0
  H  H559  1  0.66706000  0.45747000  0.24595000  1.0
  H  H560  1  0.79060000  0.45160000  0.22256000  1.0
  H  H561  1  0.74730000  0.46190000  0.28499000  1.0
  H  H562  1  0.00116000  0.93185000  0.30674000  1.0
  H  H563  1  0.85820000  0.81651000  0.22691000  1.0
  H  H564  1  0.82440000  0.82343000  0.31277000  1.0
  H  H565  1  0.03306000  0.92616000  0.22054000  1.0
  H  H566  1  0.07966000  0.75723000  0.38683000  1.0
  H  H567  1  0.99686000  0.78762000  0.32553000  1.0
  H  H568  1  0.99796000  0.89020000  0.46414000  1.0
  H  H569  1  0.77864000  0.96907000  0.42998000  1.0
  H  H570  1  0.80414000  0.91422000  0.45891000  1.0
  H  H571  1  0.77276000  0.91579000  0.39960500  1.0
  H  H572  1  0.76822000  0.10566000  0.49368000  1.0
  H  H573  1  0.73436000  0.13117000  0.66811000  1.0
  H  H574  1  0.68652000  0.06005000  0.63874000  1.0
  H  H575  1  0.83312000  0.16893000  0.52226000  1.0
  H  H576  1  0.65824000  0.93359000  0.60498000  1.0
  H  H577  1  0.60088000  0.01500000  0.58541000  1.0
  H  H578  1  0.92742000  0.94917000  0.52516000  1.0
  H  H579  1  0.84426000  0.03889000  0.44202000  1.0
  H  H580  1  0.95104000  0.99876000  0.44486000  1.0
  H  H581  1  0.95028000  0.06147000  0.44237000  1.0
  H  H582  1  0.17152000  0.94509000  0.26474000  1.0
  H  H583  1  0.33936000  0.96156000  0.09951000  1.0
  H  H584  1  0.25604000  0.03025000  0.14205000  1.0
  H  H585  1  0.24674000  0.87384000  0.21814000  1.0
  H  H586  1  0.14706000  0.13533000  0.17223000  1.0
  H  H587  1  0.07212000  0.06796000  0.20342000  1.0
  H  H588  1  0.37108000  0.09079000  0.24568000  1.0
  H  H589  1  0.44172000  0.00883000  0.25949000  1.0
  H  H590  1  0.37860000  0.97560000  0.22597000  1.0
  H  H591  1  0.39644000  0.95672000  0.28386000  1.0
  N  N592  1  0.37147000  0.20403000  0.13028500  1.0
  N  N593  1  0.32700000  0.14171000  0.17035000  1.0
  N  N594  1  0.27126000  0.41698000  0.14959000  1.0
  N  N595  1  0.39826000  0.36493000  0.12906000  1.0
  N  N596  1  0.66694000  0.46945000  0.08256000  1.0
  N  N597  1  0.74100000  0.53368000  0.08481000  1.0
  N  N598  1  0.71102000  0.21368000  0.04699000  1.0
  N  N599  1  0.59520000  0.27515000  0.05932000  1.0
  N  N600  1  0.27472000  0.89561000  0.91754000  1.0
  N  N601  1  0.37190000  0.89365000  0.84816000  1.0
  N  N602  1  0.01624000  0.84435000  0.17523000  1.0
  N  N603  1  0.14526000  0.82411000  0.12024000  1.0
  N  N604  1  0.41980000  0.78853000  0.19035000  1.0
  N  N605  1  0.47784000  0.78836000  0.25835000  1.0
  N  N606  1  0.46896000  0.83911000  0.95497000  1.0
  N  N607  1  0.35556000  0.84370000  0.02043000  1.0
  N  N608  1  0.88856000  0.68322000  0.62235000  1.0
  N  N609  1  0.83322000  0.62610000  0.66729000  1.0
  N  N610  1  0.83886000  0.89870000  0.58967000  1.0
  N  N611  1  0.95978000  0.84361000  0.58416000  1.0
  N  N612  1  0.13090000  0.94825000  0.53177000  1.0
  N  N613  1  0.20464000  0.01160000  0.54134000  1.0
  N  N614  1  0.21182000  0.66087000  0.54639000  1.0
  N  N615  1  0.11250000  0.72711500  0.54297500  1.0
  N  N616  1  0.76888000  0.36390000  0.44628000  1.0
  N  N617  1  0.87288000  0.37096000  0.38072000  1.0
  N  N618  1  0.53852000  0.28392500  0.70426000  1.0
  N  N619  1  0.65678000  0.27601000  0.64254500  1.0
  N  N620  1  0.91700000  0.25278000  0.71424000  1.0
  N  N621  1  0.97222000  0.25660000  0.78234000  1.0
  N  N622  1  0.96822000  0.31694000  0.48043000  1.0
  N  N623  1  0.85228000  0.31501000  0.54420000  1.0
  O  O624  1  0.46292000  0.27607000  0.14172000  1.0
  O  O625  1  0.56278000  0.27484000  0.19409000  1.0
  O  O626  1  0.41350000  0.30648000  0.04784000  1.0
  O  O627  1  0.28896000  0.26749000  0.08023000  1.0
  O  O628  1  0.27804000  0.28373000  0.17454000  1.0
  O  O629  1  0.15250000  0.31195000  0.22904000  1.0
  O  O630  1  0.53012000  0.37345000  0.04983000  1.0
  O  O631  1  0.44214000  0.44144000  0.03829000  1.0
  O  O632  1  0.57728000  0.33877000  0.13117000  1.0
  O  O633  1  0.68620000  0.37313000  0.07967000  1.0
  O  O634  1  0.64968000  0.42430000  0.99984000  1.0
  O  O635  1  0.75240000  0.42309000  0.93014000  1.0
  O  O636  1  0.17550000  0.82888000  0.02362000  1.0
  O  O637  1  0.22118000  0.77764000  0.96179000  1.0
  O  O638  1  0.20994000  0.89918000  0.07846000  1.0
  O  O639  1  0.18498000  0.92162000  0.00326000  1.0
  O  O640  1  0.10812000  0.86861000  0.95114000  1.0
  O  O641  1  0.02690000  0.89760000  0.02312000  1.0
  O  O642  1  0.33122000  0.83386000  0.11800000  1.0
  O  O643  1  0.44632000  0.87088000  0.13456000  1.0
  O  O644  1  0.28784000  0.76730000  0.06302000  1.0
  O  O645  1  0.32106000  0.74526000  0.13554000  1.0
  O  O646  1  0.49482000  0.72322000  0.12549000  1.0
  O  O647  1  0.60686000  0.66290000  0.10051000  1.0
  O  O648  1  0.98188000  0.75797000  0.62081000  1.0
  O  O649  1  0.06850000  0.77384000  0.67572000  1.0
  O  O650  1  0.94278000  0.77247000  0.52260000  1.0
  O  O651  1  0.81754000  0.73403000  0.55692000  1.0
  O  O652  1  0.79640000  0.77076000  0.64568000  1.0
  O  O653  1  0.65650000  0.79969000  0.68862000  1.0
  O  O654  1  0.08844000  0.82056000  0.50811000  1.0
  O  O655  1  0.16282000  0.76403000  0.45403000  1.0
  O  O656  1  0.12990000  0.80341000  0.59431000  1.0
  O  O657  1  0.20252000  0.85931000  0.54513000  1.0
  O  O658  1  0.17768000  0.88667000  0.45510000  1.0
  O  O659  1  0.29042000  0.87304000  0.38975000  1.0
  O  O660  1  0.67696000  0.28903000  0.54737000  1.0
  O  O661  1  0.74692000  0.23704000  0.48977000  1.0
  O  O662  1  0.69876000  0.35864000  0.60747000  1.0
  O  O663  1  0.67668000  0.38363000  0.53272000  1.0
  O  O664  1  0.60504000  0.33255000  0.47730000  1.0
  O  O665  1  0.52614000  0.35061000  0.55270000  1.0
  O  O666  1  0.83382000  0.29817000  0.64140000  1.0
  O  O667  1  0.95034000  0.33313000  0.65982000  1.0
  O  O668  1  0.80838000  0.23340000  0.58064000  1.0
  O  O669  1  0.83174000  0.20622000  0.65295000  1.0
  O  O670  1  0.00426000  0.19070000  0.64835000  1.0
  O  O671  1  0.11886000  0.13333000  0.61788000  1.0
  O  O672  1  0.98232000  0.45178000  0.05407000  1.0
  O  O673  1  0.83364000  0.72111000  0.97026000  1.0
  O  O674  1  0.48732000  0.72319000  0.56555000  1.0
  O  O675  1  0.33982000  0.26357000  0.41754000  1.0
  O  O676  1  0.94740000  0.61561000  0.96725000  1.0
  O  O677  1  0.73790000  0.70410000  0.78073000  1.0
  O  O678  1  0.38912000  0.59310000  0.66520000  1.0
  O  O679  1  0.18182000  0.35672000  0.91358000  1.0
  O  O680  1  0.23640000  0.19919000  0.29625000  1.0
  O  O681  1  0.77772000  0.72854000  0.30229000  1.0
  O  O682  1  0.55400000  0.11958000  0.45306000  1.0
  O  O683  1  0.88820000  0.11854000  0.15213000  1.0
  O  O684  1  0.32820000  0.58923000  0.01190000  1.0
  O  O685  1  0.36320000  0.92987000  0.65709000  1.0
  O  O686  1  0.77426000  0.50976000  0.78962000  1.0
  O  O687  1  0.43414000  0.41851000  0.80944000  1.0
  O  O688  1  0.74012000  0.39440000  0.26332000  1.0
  O  O689  1  0.90464000  0.93164000  0.40158000  1.0
  O  O690  1  0.89232000  0.03673000  0.50702000  1.0
  O  O691  1  0.30042000  0.01607000  0.28567000  1.0
