# generated using pymatgen
data_Co2H63C81N4O11
_symmetry_space_group_name_H-M   'P 1'
_cell_length_a   45.46220000
_cell_length_b   52.07160000
_cell_length_c   57.16810000
_cell_angle_alpha   90.29000000
_cell_angle_beta   92.43500000
_cell_angle_gamma   90.57500000
_symmetry_Int_Tables_number   1
_chemical_formula_structural   Co2H63C81N4O11
_chemical_formula_sum   'Co8 H252 C324 N16 O44'
_cell_volume   135202.39637113
_cell_formula_units_Z   4
loop_
 _symmetry_equiv_pos_site_id
 _symmetry_equiv_pos_as_xyz
  1  'x, y, z'
loop_
 _atom_site_type_symbol
 _atom_site_label
 _atom_site_symmetry_multiplicity
 _atom_site_fract_x
 _atom_site_fract_y
 _atom_site_fract_z
 _atom_site_occupancy
  Co  Co0  1  0.41423000  0.10728000  0.53285000  1.0
  Co  Co1  1  0.37073000  0.06362000  0.55173000  1.0
  Co  Co2  1  0.13759000  0.62907000  0.98993000  1.0
  Co  Co3  1  0.15214000  0.56903000  0.98474000  1.0
  Co  Co4  1  0.61540000  0.93797000  0.50677000  1.0
  Co  Co5  1  0.66102000  0.97961000  0.48731000  1.0
  Co  Co6  1  0.91640000  0.43613000  0.04109000  1.0
  Co  Co7  1  0.90739000  0.49137000  0.06510000  1.0
  H  H8  1  0.73082000  0.63213000  0.15913000  1.0
  H  H9  1  0.72542000  0.60271000  0.20507000  1.0
  H  H10  1  0.69374000  0.62676000  0.23136000  1.0
  H  H11  1  0.64908000  0.65169000  0.23742000  1.0
  H  H12  1  0.63668000  0.66177000  0.16310000  1.0
  H  H13  1  0.68110000  0.63691000  0.15663000  1.0
  H  H14  1  0.59295000  0.64196000  0.21927000  1.0
  H  H15  1  0.58783000  0.64559000  0.18796000  1.0
  H  H16  1  0.50932000  0.63512000  0.18033000  1.0
  H  H17  1  0.54447000  0.62589000  0.19027000  1.0
  H  H18  1  0.54060000  0.64555000  0.16414000  1.0
  H  H19  1  0.59820000  0.67386000  0.24859000  1.0
  H  H20  1  0.58195000  0.70050000  0.26167000  1.0
  H  H21  1  0.60672000  0.70568000  0.23809000  1.0
  H  H22  1  0.46531000  0.70817000  0.21535000  1.0
  H  H23  1  0.48561000  0.73682000  0.20775000  1.0
  H  H24  1  0.48486000  0.72503000  0.23759000  1.0
  H  H25  1  0.52671000  0.74802000  0.23674000  1.0
  H  H26  1  0.53795000  0.72774000  0.26116000  1.0
  H  H27  1  0.58524000  0.74627000  0.28760000  1.0
  H  H28  1  0.58971000  0.78539000  0.31167000  1.0
  H  H29  1  0.56734000  0.83097000  0.25067000  1.0
  H  H30  1  0.56273000  0.79155000  0.22691000  1.0
  H  H31  1  0.58578000  0.85300000  0.28731000  1.0
  H  H32  1  0.56731000  0.82034000  0.32874000  1.0
  H  H33  1  0.47516000  0.69946000  0.17712000  1.0
  H  H34  1  0.49197000  0.67291000  0.16395000  1.0
  H  H35  1  0.41630000  0.69182000  0.18964000  1.0
  H  H36  1  0.37352000  0.68551000  0.16275000  1.0
  H  H37  1  0.41600000  0.62044000  0.13186000  1.0
  H  H38  1  0.45884000  0.62731000  0.15891000  1.0
  H  H39  1  0.37082000  0.63773000  0.11211000  1.0
  H  H40  1  0.33333333  0.66400000  0.14839000  1.0
  H  H41  1  0.22395000  0.11036000  0.38679000  1.0
  H  H42  1  0.24241000  0.16709000  0.38615000  1.0
  H  H43  1  0.21045000  0.19143000  0.35892000  1.0
  H  H44  1  0.16217000  0.19932000  0.33952000  1.0
  H  H45  1  0.12881000  0.12870000  0.36714000  1.0
  H  H46  1  0.17650000  0.12065000  0.38699000  1.0
  H  H47  1  0.10630000  0.20107000  0.35882000  1.0
  H  H48  1  0.09243000  0.17180000  0.37012000  1.0
  H  H49  1  0.03539000  0.12672000  0.34682000  1.0
  H  H50  1  0.04603000  0.14529000  0.37274000  1.0
  H  H51  1  0.07242000  0.13548000  0.35167000  1.0
  H  H52  1  0.11068000  0.21576000  0.32128000  1.0
  H  H53  1  0.09035000  0.24066000  0.33565000  1.0
  H  H54  1  0.08795000  0.23583000  0.30428000  1.0
  H  H55  1  0.97739000  0.17653000  0.29290000  1.0
  H  H56  1  0.99035000  0.20564000  0.28196000  1.0
  H  H57  1  0.96847000  0.20625000  0.30773000  1.0
  H  H58  1  0.00674000  0.24243000  0.30025000  1.0
  H  H59  1  0.04205000  0.25348000  0.31008000  1.0
  H  H60  1  0.07206000  0.27817000  0.27720000  1.0
  H  H61  1  0.06176000  0.31523000  0.25198000  1.0
  H  H62  1  0.98419000  0.27636000  0.22272000  1.0
  H  H63  1  0.99458000  0.23956000  0.24849000  1.0
  H  H64  1  0.00627000  0.31477000  0.20169000  1.0
  H  H65  1  0.03085000  0.34996000  0.24114000  1.0
  H  H66  1  0.96884000  0.16456000  0.32925000  1.0
  H  H67  1  0.99216000  0.13700000  0.32628000  1.0
  H  H68  1  0.93333000  0.16449000  0.36758000  1.0
  H  H69  1  0.89453000  0.13458000  0.37878000  1.0
  H  H70  1  0.95581000  0.07186000  0.37530000  1.0
  H  H71  1  0.99423000  0.10215000  0.36387000  1.0
  H  H72  1  0.90448000  0.06183000  0.38362000  1.0
  H  H73  1  0.87576000  0.10849000  0.40579000  1.0
  H  H74  1  0.69973000  0.40334000  0.93689000  1.0
  H  H75  1  0.71892000  0.41581000  0.88743000  1.0
  H  H76  1  0.69382000  0.38350000  0.86058000  1.0
  H  H77  1  0.64836000  0.36125000  0.84677000  1.0
  H  H78  1  0.60537000  0.38609000  0.90837000  1.0
  H  H79  1  0.65074000  0.40810000  0.92263000  1.0
  H  H80  1  0.59314000  0.37735000  0.83733000  1.0
  H  H81  1  0.57718000  0.39321000  0.86118000  1.0
  H  H82  1  0.51188000  0.37964000  0.89420000  1.0
  H  H83  1  0.52843000  0.40333000  0.87574000  1.0
  H  H84  1  0.55020000  0.37993000  0.89205000  1.0
  H  H85  1  0.58120000  0.34763000  0.80239000  1.0
  H  H86  1  0.57717000  0.31411000  0.80968000  1.0
  H  H87  1  0.59803000  0.33408000  0.82879000  1.0
  H  H88  1  0.45518000  0.32716000  0.82004000  1.0
  H  H89  1  0.45960000  0.31474000  0.84967000  1.0
  H  H90  1  0.47541000  0.29819000  0.82681000  1.0
  H  H91  1  0.49704000  0.31222000  0.79405000  1.0
  H  H92  1  0.53331000  0.32023000  0.78732000  1.0
  H  H93  1  0.54586000  0.27705000  0.76332000  1.0
  H  H94  1  0.52245000  0.24510000  0.73662000  1.0
  H  H95  1  0.46300000  0.22384000  0.79038000  1.0
  H  H96  1  0.48664000  0.25583000  0.81677000  1.0
  H  H97  1  0.46377000  0.19731000  0.75420000  1.0
  H  H98  1  0.48079000  0.23254000  0.71410000  1.0
  H  H99  1  0.45128000  0.35624000  0.85382000  1.0
  H  H100  1  0.47025000  0.35822000  0.88199000  1.0
  H  H101  1  0.42097000  0.39731000  0.83607000  1.0
  H  H102  1  0.37396000  0.41220000  0.85064000  1.0
  H  H103  1  0.41493000  0.42051000  0.91994000  1.0
  H  H104  1  0.46154000  0.40575000  0.90500000  1.0
  H  H105  1  0.34244000  0.41753000  0.88517000  1.0
  H  H106  1  0.37762000  0.44846000  0.92285000  1.0
  H  H107  1  0.13102000  0.98403000  0.65148000  1.0
  H  H108  1  0.16505000  0.93383000  0.64726000  1.0
  H  H109  1  0.15324000  0.90572000  0.68082000  1.0
  H  H110  1  0.11566000  0.88565000  0.70466000  1.0
  H  H111  1  0.05232000  0.94109000  0.68004000  1.0
  H  H112  1  0.08921000  0.96120000  0.65600000  1.0
  H  H113  1  0.06095000  0.86562000  0.68989000  1.0
  H  H114  1  0.03583000  0.88816000  0.67775000  1.0
  H  H115  1  0.97343000  0.90078000  0.67798000  1.0
  H  H116  1  0.00571000  0.91604000  0.69149000  1.0
  H  H117  1  0.97312000  0.91709000  0.70621000  1.0
  H  H118  1  0.07654000  0.85599000  0.72515000  1.0
  H  H119  1  0.06439000  0.82327000  0.72697000  1.0
  H  H120  1  0.06368000  0.84528000  0.75171000  1.0
  H  H121  1  0.93116000  0.82414000  0.72346000  1.0
  H  H122  1  0.94302000  0.83000000  0.75362000  1.0
  H  H123  1  0.95703000  0.80367000  0.73666000  1.0
  H  H124  1  0.03170000  0.81720000  0.76304000  1.0
  H  H125  1  0.99382000  0.81138000  0.76488000  1.0
  H  H126  1  0.98257000  0.75842000  0.76383000  1.0
  H  H127  1  0.00238000  0.72176000  0.78577000  1.0
  H  H128  1  0.08991000  0.74225000  0.76511000  1.0
  H  H129  1  0.06947000  0.77868000  0.74305000  1.0
  H  H130  1  0.08207000  0.70031000  0.78310000  1.0
  H  H131  1  0.02806000  0.70035000  0.81350000  1.0
  H  H132  1  0.92383000  0.86818000  0.72676000  1.0
  H  H133  1  0.93451000  0.89310000  0.70823000  1.0
  H  H134  1  0.87539000  0.84365000  0.71014000  1.0
  H  H135  1  0.82597000  0.85845000  0.69774000  1.0
  H  H136  1  0.86423000  0.90578000  0.64494000  1.0
  H  H137  1  0.91351000  0.89131000  0.65798000  1.0
  H  H138  1  0.79493000  0.89215000  0.67632000  1.0
  H  H139  1  0.81812000  0.89197000  0.62674000  1.0
  H  H140  1  0.18471000  0.94586000  0.61469000  1.0
  H  H141  1  0.21272000  0.96527000  0.58402000  1.0
  H  H142  1  0.18408000  0.04030000  0.60438000  1.0
  H  H143  1  0.15606000  0.02119000  0.63572000  1.0
  H  H144  1  0.27915000  0.08085000  0.56784000  1.0
  H  H145  1  0.22878000  0.06417000  0.57014000  1.0
  H  H146  1  0.26211000  0.98776000  0.57993000  1.0
  H  H147  1  0.31264000  0.00425000  0.57808000  1.0
  H  H148  1  0.21111000  0.00236000  0.55727000  1.0
  H  H149  1  0.30110000  0.43653000  0.89314000  1.0
  H  H150  1  0.25499000  0.44097000  0.91308000  1.0
  H  H151  1  0.30314000  0.46185000  0.97688000  1.0
  H  H152  1  0.34962000  0.45704000  0.95735000  1.0
  H  H153  1  0.16036000  0.49165000  0.95385000  1.0
  H  H154  1  0.19155000  0.45408000  0.94885000  1.0
  H  H155  1  0.26855000  0.50025000  0.96652000  1.0
  H  H156  1  0.23765000  0.53803000  0.97054000  1.0
  H  H157  1  0.25232000  0.44592000  0.97615000  1.0
  H  H158  1  0.86118000  0.03937000  0.38585000  1.0
  H  H159  1  0.83590000  0.00697000  0.40883000  1.0
  H  H160  1  0.82770000  0.06176000  0.46472000  1.0
  H  H161  1  0.85282000  0.09434000  0.44195000  1.0
  H  H162  1  0.72489000  0.03634000  0.46640000  1.0
  H  H163  1  0.77648000  0.04667000  0.46016000  1.0
  H  H164  1  0.79300000  0.96710000  0.44513000  1.0
  H  H165  1  0.74153000  0.95647000  0.45219000  1.0
  H  H166  1  0.82731000  0.01445000  0.47053000  1.0
  H  H167  1  0.75105000  0.56954000  0.18894000  1.0
  H  H168  1  0.79932000  0.54935000  0.18818000  1.0
  H  H169  1  0.83300000  0.61400000  0.15066000  1.0
  H  H170  1  0.78462000  0.63451000  0.15129000  1.0
  H  H171  1  0.84476000  0.50021000  0.12121000  1.0
  H  H172  1  0.82740000  0.52423000  0.15492000  1.0
  H  H173  1  0.88799000  0.58578000  0.14112000  1.0
  H  H174  1  0.90577000  0.56189000  0.10754000  1.0
  H  H175  1  0.85184000  0.55798000  0.18586000  1.0
  H  H176  1  0.27853000  0.16038000  0.41304000  1.0
  H  H177  1  0.32954000  0.15098000  0.42492000  1.0
  H  H178  1  0.31780000  0.07317000  0.40032000  1.0
  H  H179  1  0.26676000  0.08232000  0.38801000  1.0
  H  H180  1  0.38386000  0.12055000  0.49703000  1.0
  H  H181  1  0.37751000  0.13466000  0.45623000  1.0
  H  H182  1  0.34653000  0.05906000  0.43594000  1.0
  H  H183  1  0.35236000  0.04485000  0.47668000  1.0
  H  H184  1  0.36693000  0.09366000  0.40793000  1.0
  H  H185  1  0.34074000  0.64953000  0.08304000  1.0
  H  H186  1  0.30003000  0.65293000  0.05433000  1.0
  H  H187  1  0.23974000  0.66415000  0.10935000  1.0
  H  H188  1  0.28044000  0.66031000  0.13870000  1.0
  H  H189  1  0.22581000  0.58309000  0.03451000  1.0
  H  H190  1  0.25770000  0.61455000  0.05520000  1.0
  H  H191  1  0.18780000  0.66991000  0.05093000  1.0
  H  H192  1  0.15644000  0.63879000  0.02907000  1.0
  H  H193  1  0.25277000  0.67460000  0.04835000  1.0
  H  H194  1  0.76488000  0.92736000  0.66288000  1.0
  H  H195  1  0.71409000  0.93740000  0.65073000  1.0
  H  H196  1  0.72071000  0.88918000  0.58972000  1.0
  H  H197  1  0.77197000  0.87966000  0.60148000  1.0
  H  H198  1  0.69324000  0.98584000  0.56159000  1.0
  H  H199  1  0.70071000  0.96624000  0.60038000  1.0
  H  H200  1  0.65593000  0.89760000  0.57537000  1.0
  H  H201  1  0.64804000  0.91703000  0.53665000  1.0
  H  H202  1  0.67269000  0.92961000  0.62560000  1.0
  H  H203  1  0.74837000  0.39507000  0.95943000  1.0
  H  H204  1  0.79919000  0.40826000  0.96964000  1.0
  H  H205  1  0.79503000  0.46509000  0.91520000  1.0
  H  H206  1  0.74440000  0.45168000  0.90454000  1.0
  H  H207  1  0.87249000  0.42901000  0.02011000  1.0
  H  H208  1  0.85203000  0.41401000  0.98218000  1.0
  H  H209  1  0.83179000  0.49180000  0.96273000  1.0
  H  H210  1  0.85273000  0.50717000  0.00069000  1.0
  H  H211  1  0.84387000  0.42772000  0.94114000  1.0
  H  H212  1  0.43818000  0.22813000  0.68446000  1.0
  H  H213  1  0.40258000  0.20096000  0.66226000  1.0
  H  H214  1  0.42852000  0.13581000  0.70404000  1.0
  H  H215  1  0.46370000  0.16303000  0.72685000  1.0
  H  H216  1  0.41496000  0.15072000  0.59336000  1.0
  H  H217  1  0.41046000  0.17231000  0.63076000  1.0
  H  H218  1  0.38507000  0.10094000  0.66221000  1.0
  H  H219  1  0.38865000  0.07904000  0.62440000  1.0
  H  H220  1  0.37089000  0.16189000  0.66731000  1.0
  H  H221  1  0.02113000  0.65975000  0.83419000  1.0
  H  H222  1  0.04064000  0.62037000  0.85223000  1.0
  H  H223  1  0.12517000  0.63598000  0.82413000  1.0
  H  H224  1  0.10670000  0.67544000  0.80674000  1.0
  H  H225  1  0.09840000  0.56200000  0.92037000  1.0
  H  H226  1  0.08441000  0.56367000  0.87860000  1.0
  H  H227  1  0.12164000  0.64003000  0.87505000  1.0
  H  H228  1  0.13449000  0.63878000  0.91677000  1.0
  H  H229  1  0.08159000  0.58657000  0.84313000  1.0
  H  H230  1  0.61205000  0.87931000  0.31510000  1.0
  H  H231  1  0.60884000  0.92099000  0.33495000  1.0
  H  H232  1  0.53553000  0.89294000  0.37305000  1.0
  H  H233  1  0.53897000  0.85101000  0.35369000  1.0
  H  H234  1  0.64478000  0.96037000  0.41521000  1.0
  H  H235  1  0.62290000  0.95242000  0.37575000  1.0
  H  H236  1  0.54338000  0.92468000  0.40563000  1.0
  H  H237  1  0.56506000  0.93186000  0.44497000  1.0
  H  H238  1  0.57413000  0.94970000  0.35372000  1.0
  H  H239  1  0.03094000  0.34112000  0.17588000  1.0
  H  H240  1  0.03384000  0.37650000  0.14835000  1.0
  H  H241  1  0.01545000  0.43033000  0.20306000  1.0
  H  H242  1  0.01317000  0.39488000  0.23114000  1.0
  H  H243  1  0.98313000  0.41298000  0.08664000  1.0
  H  H244  1  0.02016000  0.40264000  0.11706000  1.0
  H  H245  1  0.98752000  0.46223000  0.16117000  1.0
  H  H246  1  0.95061000  0.47344000  0.13039000  1.0
  H  H247  1  0.04998000  0.42516000  0.15048000  1.0
  H  H248  1  0.60900000  0.04386000  0.49517000  1.0
  H  H249  1  0.57303000  0.07769000  0.50203000  1.0
  H  H250  1  0.54968000  0.98873000  0.52469000  1.0
  H  H251  1  0.48817000  0.06069000  0.52671000  1.0
  H  H252  1  0.47207000  0.97502000  0.56074000  1.0
  H  H253  1  0.43254000  0.00673000  0.56176000  1.0
  H  H254  1  0.98521000  0.45526000  0.99989000  1.0
  H  H255  1  0.02913000  0.47104000  0.98083000  1.0
  H  H256  1  0.97984000  0.52824000  0.03575000  1.0
  H  H257  1  0.06937000  0.54171000  0.99944000  1.0
  H  H258  1  0.01065000  0.60636000  0.03951000  1.0
  H  H259  1  0.05917000  0.61886000  0.02536000  1.0
  C  C260  1  0.73601000  0.61784000  0.17240000  1.0
  C  C261  1  0.71853000  0.61515000  0.19071000  1.0
  C  C262  1  0.69130000  0.63019000  0.19359000  1.0
  C  C263  1  0.68149000  0.63426000  0.21629000  1.0
  C  C264  1  0.65609000  0.64839000  0.21981000  1.0
  C  C265  1  0.63965000  0.65819000  0.20067000  1.0
  C  C266  1  0.64916000  0.65412000  0.17797000  1.0
  C  C267  1  0.67471000  0.64014000  0.17439000  1.0
  C  C268  1  0.59016000  0.65622000  0.20487000  1.0
  C  C269  1  0.56255000  0.67166000  0.20948000  1.0
  C  C270  1  0.56343000  0.69145000  0.22671000  1.0
  C  C271  1  0.53995000  0.70923000  0.22756000  1.0
  C  C272  1  0.51320000  0.70384000  0.21459000  1.0
  C  C273  1  0.51191000  0.68365000  0.19778000  1.0
  C  C274  1  0.53576000  0.66640000  0.19659000  1.0
  C  C275  1  0.53242000  0.64208000  0.18188000  1.0
  C  C276  1  0.58904000  0.69308000  0.24461000  1.0
  C  C277  1  0.48586000  0.71941000  0.21889000  1.0
  C  C278  1  0.54287000  0.73336000  0.24294000  1.0
  C  C279  1  0.57299000  0.76617000  0.25571000  1.0
  C  C280  1  0.58093000  0.76473000  0.27964000  1.0
  C  C281  1  0.58331000  0.78708000  0.29331000  1.0
  C  C282  1  0.57823000  0.81129000  0.28311000  1.0
  C  C283  1  0.57106000  0.81259000  0.25900000  1.0
  C  C284  1  0.56832000  0.79023000  0.24545000  1.0
  C  C285  1  0.58097000  0.83556000  0.29684000  1.0
  C  C286  1  0.57511000  0.83722000  0.31969000  1.0
  C  C287  1  0.48505000  0.68041000  0.18115000  1.0
  C  C288  1  0.44068000  0.66025000  0.17592000  1.0
  C  C289  1  0.41616000  0.67621000  0.17707000  1.0
  C  C290  1  0.39161000  0.67229000  0.16186000  1.0
  C  C291  1  0.39107000  0.65203000  0.14538000  1.0
  C  C292  1  0.41570000  0.63604000  0.14443000  1.0
  C  C293  1  0.44016000  0.63995000  0.15972000  1.0
  C  C294  1  0.36609000  0.64799000  0.12806000  1.0
  C  C295  1  0.33845000  0.65588000  0.13152000  1.0
  C  C296  1  0.23789000  0.12710000  0.39025000  1.0
  C  C297  1  0.22767000  0.15060000  0.38464000  1.0
  C  C298  1  0.19768000  0.15516000  0.37408000  1.0
  C  C299  1  0.19278000  0.17765000  0.36104000  1.0
  C  C300  1  0.16533000  0.18225000  0.35001000  1.0
  C  C301  1  0.14211000  0.16466000  0.35214000  1.0
  C  C302  1  0.14658000  0.14246000  0.36551000  1.0
  C  C303  1  0.17403000  0.13779000  0.37656000  1.0
  C  C304  1  0.09648000  0.18213000  0.35353000  1.0
  C  C305  1  0.06766000  0.18583000  0.33938000  1.0
  C  C306  1  0.06381000  0.20766000  0.32480000  1.0
  C  C307  1  0.03593000  0.21238000  0.31358000  1.0
  C  C308  1  0.01321000  0.19358000  0.31448000  1.0
  C  C309  1  0.01633000  0.17263000  0.33015000  1.0
  C  C310  1  0.04446000  0.16751000  0.34082000  1.0
  C  C311  1  0.04975000  0.14251000  0.35384000  1.0
  C  C312  1  0.08945000  0.22604000  0.32143000  1.0
  C  C313  1  0.98578000  0.19576000  0.29857000  1.0
  C  C314  1  0.03053000  0.23738000  0.30045000  1.0
  C  C315  1  0.03370000  0.25653000  0.26494000  1.0
  C  C316  1  0.05251000  0.27804000  0.26573000  1.0
  C  C317  1  0.04645000  0.29918000  0.25141000  1.0
  C  C318  1  0.02174000  0.29888000  0.23570000  1.0
  C  C319  1  0.00310000  0.27720000  0.23489000  1.0
  C  C320  1  0.00890000  0.25628000  0.24954000  1.0
  C  C321  1  0.01646000  0.31987000  0.21863000  1.0
  C  C322  1  0.02340000  0.34456000  0.22347000  1.0
  C  C323  1  0.98984000  0.15572000  0.33557000  1.0
  C  C324  1  0.96637000  0.13537000  0.36474000  1.0
  C  C325  1  0.93812000  0.14424000  0.36909000  1.0
  C  C326  1  0.91614000  0.12711000  0.37574000  1.0
  C  C327  1  0.92228000  0.10079000  0.37842000  1.0
  C  C328  1  0.95047000  0.09199000  0.37346000  1.0
  C  C329  1  0.97240000  0.10916000  0.36692000  1.0
  C  C330  1  0.90034000  0.08201000  0.38688000  1.0
  C  C331  1  0.87824000  0.08856000  0.40066000  1.0
  C  C332  1  0.71308000  0.41174000  0.92353000  1.0
  C  C333  1  0.70407000  0.40985000  0.90083000  1.0
  C  C334  1  0.67599000  0.39720000  0.89281000  1.0
  C  C335  1  0.67464000  0.38430000  0.87115000  1.0
  C  C336  1  0.64882000  0.37169000  0.86321000  1.0
  C  C337  1  0.62361000  0.37244000  0.87646000  1.0
  C  C338  1  0.62464000  0.38564000  0.89791000  1.0
  C  C339  1  0.65063000  0.39793000  0.90608000  1.0
  C  C340  1  0.58129000  0.37384000  0.85368000  1.0
  C  C341  1  0.55241000  0.35954000  0.84797000  1.0
  C  C342  1  0.55070000  0.34081000  0.82973000  1.0
  C  C343  1  0.52319000  0.32909000  0.82317000  1.0
  C  C344  1  0.49828000  0.33401000  0.83657000  1.0
  C  C345  1  0.49934000  0.35416000  0.85340000  1.0
  C  C346  1  0.52699000  0.36513000  0.86062000  1.0
  C  C347  1  0.52939000  0.38308000  0.88167000  1.0
  C  C348  1  0.57814000  0.33388000  0.81688000  1.0
  C  C349  1  0.47053000  0.31780000  0.83291000  1.0
  C  C350  1  0.52017000  0.31194000  0.80147000  1.0
  C  C351  1  0.51719000  0.26932000  0.79164000  1.0
  C  C352  1  0.52753000  0.26566000  0.76909000  1.0
  C  C353  1  0.51402000  0.24751000  0.75389000  1.0
  C  C354  1  0.49032000  0.23238000  0.76125000  1.0
  C  C355  1  0.48089000  0.23548000  0.78415000  1.0
  C  C356  1  0.49411000  0.25386000  0.79916000  1.0
  C  C357  1  0.47515000  0.21296000  0.74578000  1.0
  C  C358  1  0.47207000  0.21552000  0.72238000  1.0
  C  C359  1  0.47107000  0.36435000  0.86338000  1.0
  C  C360  1  0.44434000  0.40020000  0.86961000  1.0
  C  C361  1  0.41961000  0.40255000  0.85433000  1.0
  C  C362  1  0.39295000  0.41107000  0.86267000  1.0
  C  C363  1  0.39076000  0.41799000  0.88630000  1.0
  C  C364  1  0.41588000  0.41608000  0.90150000  1.0
  C  C365  1  0.44247000  0.40737000  0.89314000  1.0
  C  C366  1  0.36157000  0.42538000  0.89476000  1.0
  C  C367  1  0.35821000  0.44051000  0.91363000  1.0
  C  C368  1  0.14732000  0.97107000  0.64485000  1.0
  C  C369  1  0.14742000  0.94645000  0.65201000  1.0
  C  C370  1  0.12450000  0.93536000  0.66689000  1.0
  C  C371  1  0.13132000  0.91368000  0.68053000  1.0
  C  C372  1  0.10998000  0.90215000  0.69403000  1.0
  C  C373  1  0.08130000  0.91177000  0.69372000  1.0
  C  C374  1  0.07434000  0.93340000  0.68022000  1.0
  C  C375  1  0.09565000  0.94504000  0.66677000  1.0
  C  C376  1  0.04549000  0.88105000  0.69472000  1.0
  C  C377  1  0.02154000  0.86995000  0.70961000  1.0
  C  C378  1  0.02809000  0.84989000  0.72570000  1.0
  C  C379  1  0.00474000  0.83588000  0.73564000  1.0
  C  C380  1  0.97513000  0.84162000  0.72880000  1.0
  C  C381  1  0.96878000  0.86453000  0.71620000  1.0
  C  C382  1  0.99226000  0.87913000  0.70712000  1.0
  C  C383  1  0.98586000  0.90441000  0.69483000  1.0
  C  C384  1  0.05979000  0.84322000  0.73251000  1.0
  C  C385  1  0.95027000  0.82406000  0.73612000  1.0
  C  C386  1  0.01137000  0.81343000  0.75201000  1.0
  C  C387  1  0.02472000  0.77138000  0.75231000  1.0
  C  C388  1  0.00605000  0.75512000  0.76450000  1.0
  C  C389  1  0.01754000  0.73430000  0.77715000  1.0
  C  C390  1  0.04800000  0.72935000  0.77765000  1.0
  C  C391  1  0.06648000  0.74572000  0.76528000  1.0
  C  C392  1  0.05496000  0.76653000  0.75275000  1.0
  C  C393  1  0.06122000  0.70659000  0.78950000  1.0
  C  C394  1  0.04890000  0.69387000  0.80717000  1.0
  C  C395  1  0.93684000  0.87214000  0.71107000  1.0
  C  C396  1  0.89787000  0.86672000  0.68510000  1.0
  C  C397  1  0.87295000  0.85734000  0.69604000  1.0
  C  C398  1  0.84490000  0.86575000  0.68891000  1.0
  C  C399  1  0.84125000  0.88293000  0.67019000  1.0
  C  C400  1  0.86629000  0.89216000  0.65913000  1.0
  C  C401  1  0.89439000  0.88415000  0.66666667  1.0
  C  C402  1  0.81117000  0.89129000  0.66294000  1.0
  C  C403  1  0.80279000  0.89552000  0.64044000  1.0
  C  C404  1  0.32930000  0.05291000  0.56659000  1.0
  C  C405  1  0.43309000  0.05538000  0.54398000  1.0
  C  C406  1  0.40002000  0.10112000  0.58221000  1.0
  C  C407  1  0.37004000  0.07365000  0.51465000  1.0
  C  C408  1  0.17777000  0.53897000  0.96941000  1.0
  C  C409  1  0.09736000  0.58805000  0.00259000  1.0
  C  C410  1  0.12683000  0.59924000  0.94684000  1.0
  C  C411  1  0.17251000  0.59207000  0.01325000  1.0
  C  C412  1  0.70029000  0.98856000  0.46861000  1.0
  C  C413  1  0.60336000  0.99259000  0.50504000  1.0
  C  C414  1  0.61921000  0.95183000  0.45712000  1.0
  C  C415  1  0.66679000  0.96403000  0.52257000  1.0
  C  C416  1  0.88876000  0.51404000  0.09263000  1.0
  C  C417  1  0.95298000  0.48073000  0.03176000  1.0
  C  C418  1  0.94331000  0.45178000  0.08664000  1.0
  C  C419  1  0.87921000  0.47845000  0.03530000  1.0
  C  C420  1  0.16807000  0.98201000  0.62795000  1.0
  C  C421  1  0.18494000  0.96653000  0.61340000  1.0
  C  C422  1  0.20106000  0.97759000  0.59570000  1.0
  C  C423  1  0.20050000  0.00421000  0.59206000  1.0
  C  C424  1  0.18488000  0.01976000  0.60711000  1.0
  C  C425  1  0.16882000  0.00878000  0.62488000  1.0
  C  C426  1  0.29976000  0.04381000  0.57268000  1.0
  C  C427  1  0.27581000  0.06061000  0.57120000  1.0
  C  C428  1  0.24708000  0.05118000  0.57258000  1.0
  C  C429  1  0.24179000  0.02488000  0.57535000  1.0
  C  C430  1  0.26578000  0.00819000  0.57816000  1.0
  C  C431  1  0.29459000  0.01765000  0.57702000  1.0
  C  C432  1  0.32930000  0.44565000  0.92390000  1.0
  C  C433  1  0.30214000  0.44193000  0.91142000  1.0
  C  C434  1  0.27563000  0.44481000  0.92265000  1.0
  C  C435  1  0.27573000  0.45161000  0.94637000  1.0
  C  C436  1  0.30267000  0.45661000  0.95852000  1.0
  C  C437  1  0.32915000  0.45379000  0.94734000  1.0
  C  C438  1  0.19668000  0.51767000  0.96248000  1.0
  C  C439  1  0.18403000  0.49391000  0.95590000  1.0
  C  C440  1  0.20178000  0.47251000  0.95295000  1.0
  C  C441  1  0.23234000  0.47434000  0.95682000  1.0
  C  C442  1  0.24513000  0.49837000  0.96278000  1.0
  C  C443  1  0.22743000  0.51997000  0.96515000  1.0
  C  C444  1  0.85974000  0.06927000  0.41243000  1.0
  C  C445  1  0.85389000  0.04462000  0.40297000  1.0
  C  C446  1  0.83909000  0.02617000  0.41589000  1.0
  C  C447  1  0.82989000  0.03201000  0.43835000  1.0
  C  C448  1  0.83429000  0.05699000  0.44728000  1.0
  C  C449  1  0.84881000  0.07549000  0.43432000  1.0
  C  C450  1  0.72930000  0.99560000  0.45983000  1.0
  C  C451  1  0.73930000  0.02119000  0.46104000  1.0
  C  C452  1  0.76883000  0.02714000  0.45738000  1.0
  C  C453  1  0.78856000  0.00763000  0.45171000  1.0
  C  C454  1  0.77799000  0.98240000  0.44903000  1.0
  C  C455  1  0.74867000  0.97636000  0.45317000  1.0
  C  C456  1  0.76431000  0.60405000  0.17077000  1.0
  C  C457  1  0.76869000  0.57959000  0.18062000  1.0
  C  C458  1  0.79615000  0.56785000  0.17997000  1.0
  C  C459  1  0.81972000  0.58034000  0.16952000  1.0
  C  C460  1  0.81505000  0.60418000  0.15881000  1.0
  C  C461  1  0.78751000  0.61583000  0.15926000  1.0
  C  C462  1  0.87671000  0.52916000  0.11185000  1.0
  C  C463  1  0.85414000  0.51898000  0.12519000  1.0
  C  C464  1  0.84410000  0.53268000  0.14435000  1.0
  C  C465  1  0.85633000  0.55685000  0.15026000  1.0
  C  C466  1  0.87823000  0.56728000  0.13659000  1.0
  C  C467  1  0.88840000  0.55356000  0.11753000  1.0
  C  C468  1  0.26867000  0.12221000  0.39891000  1.0
  C  C469  1  0.28672000  0.14134000  0.40981000  1.0
  C  C470  1  0.31584000  0.13599000  0.41688000  1.0
  C  C471  1  0.32742000  0.11152000  0.41335000  1.0
  C  C472  1  0.30924000  0.09219000  0.40317000  1.0
  C  C473  1  0.28015000  0.09749000  0.39611000  1.0
  C  C474  1  0.36872000  0.08159000  0.48993000  1.0
  C  C475  1  0.37590000  0.10690000  0.48384000  1.0
  C  C476  1  0.37212000  0.11503000  0.46066000  1.0
  C  C477  1  0.36128000  0.09802000  0.44325000  1.0
  C  C478  1  0.35459000  0.07254000  0.44923000  1.0
  C  C479  1  0.35815000  0.06444000  0.47243000  1.0
  C  C480  1  0.31392000  0.65443000  0.11342000  1.0
  C  C481  1  0.31887000  0.65182000  0.08935000  1.0
  C  C482  1  0.29557000  0.65386000  0.07276000  1.0
  C  C483  1  0.26691000  0.65867000  0.07980000  1.0
  C  C484  1  0.26166000  0.66020000  0.10370000  1.0
  C  C485  1  0.28495000  0.65813000  0.12035000  1.0
  C  C486  1  0.18873000  0.60860000  0.03037000  1.0
  C  C487  1  0.21702000  0.60172000  0.03870000  1.0
  C  C488  1  0.23527000  0.61977000  0.05056000  1.0
  C  C489  1  0.22489000  0.64465000  0.05515000  1.0
  C  C490  1  0.19594000  0.65074000  0.04801000  1.0
  C  C491  1  0.17811000  0.63304000  0.03549000  1.0
  C  C492  1  0.77217000  0.90240000  0.63325000  1.0
  C  C493  1  0.75552000  0.91891000  0.64688000  1.0
  C  C494  1  0.72658000  0.92484000  0.63986000  1.0
  C  C495  1  0.71362000  0.91423000  0.61919000  1.0
  C  C496  1  0.73036000  0.89783000  0.60553000  1.0
  C  C497  1  0.75952000  0.89234000  0.61230000  1.0
  C  C498  1  0.66994000  0.95296000  0.54620000  1.0
  C  C499  1  0.68487000  0.96663000  0.56441000  1.0
  C  C500  1  0.68928000  0.95548000  0.58648000  1.0
  C  C501  1  0.67915000  0.93037000  0.59048000  1.0
  C  C502  1  0.66404000  0.91688000  0.57240000  1.0
  C  C503  1  0.65942000  0.92805000  0.55042000  1.0
  C  C504  1  0.74267000  0.42194000  0.93091000  1.0
  C  C505  1  0.75818000  0.41064000  0.94989000  1.0
  C  C506  1  0.78714000  0.41829000  0.95585000  1.0
  C  C507  1  0.80071000  0.43804000  0.94337000  1.0
  C  C508  1  0.78474000  0.45011000  0.92516000  1.0
  C  C509  1  0.75599000  0.44220000  0.91892000  1.0
  C  C510  1  0.86460000  0.46930000  0.01319000  1.0
  C  C511  1  0.86355000  0.44295000  0.00786000  1.0
  C  C512  1  0.85160000  0.43430000  0.98630000  1.0
  C  C513  1  0.84026000  0.45184000  0.96975000  1.0
  C  C514  1  0.84027000  0.47806000  0.97539000  1.0
  C  C515  1  0.85232000  0.48677000  0.99697000  1.0
  C  C516  1  0.45324000  0.19785000  0.70766000  1.0
  C  C517  1  0.43661000  0.20793000  0.68868000  1.0
  C  C518  1  0.41647000  0.19240000  0.67587000  1.0
  C  C519  1  0.41326000  0.16627000  0.68135000  1.0
  C  C520  1  0.43092000  0.15585000  0.69952000  1.0
  C  C521  1  0.45071000  0.17149000  0.71265000  1.0
  C  C522  1  0.40206000  0.11310000  0.60581000  1.0
  C  C523  1  0.40915000  0.13937000  0.60831000  1.0
  C  C524  1  0.40674000  0.15182000  0.62983000  1.0
  C  C525  1  0.39803000  0.13809000  0.64952000  1.0
  C  C526  1  0.39237000  0.11168000  0.64733000  1.0
  C  C527  1  0.39425000  0.09926000  0.62569000  1.0
  C  C528  1  0.06193000  0.67059000  0.81844000  1.0
  C  C529  1  0.04393000  0.65488000  0.83193000  1.0
  C  C530  1  0.05496000  0.63244000  0.84225000  1.0
  C  C531  1  0.08428000  0.62538000  0.83931000  1.0
  C  C532  1  0.10247000  0.64119000  0.82637000  1.0
  C  C533  1  0.09159000  0.66367000  0.81618000  1.0
  C  C534  1  0.11726000  0.60034000  0.92186000  1.0
  C  C535  1  0.10309000  0.57929000  0.91071000  1.0
  C  C536  1  0.09489000  0.58032000  0.88688000  1.0
  C  C537  1  0.10087000  0.60231000  0.87363000  1.0
  C  C538  1  0.11559000  0.62319000  0.88482000  1.0
  C  C539  1  0.12313000  0.62241000  0.90873000  1.0
  C  C540  1  0.57524000  0.86211000  0.33248000  1.0
  C  C541  1  0.59528000  0.88200000  0.32772000  1.0
  C  C542  1  0.59368000  0.90572000  0.33918000  1.0
  C  C543  1  0.57182000  0.91003000  0.35535000  1.0
  C  C544  1  0.55256000  0.88992000  0.36070000  1.0
  C  C545  1  0.55448000  0.86608000  0.34958000  1.0
  C  C546  1  0.60661000  0.94684000  0.43322000  1.0
  C  C547  1  0.62269000  0.95246000  0.41337000  1.0
  C  C548  1  0.61036000  0.94778000  0.39086000  1.0
  C  C549  1  0.58159000  0.93785000  0.38790000  1.0
  C  C550  1  0.56568000  0.93206000  0.40765000  1.0
  C  C551  1  0.57810000  0.93630000  0.43008000  1.0
  C  C552  1  0.02132000  0.36519000  0.20568000  1.0
  C  C553  1  0.02654000  0.36034000  0.18198000  1.0
  C  C554  1  0.02818000  0.38060000  0.16613000  1.0
  C  C555  1  0.02421000  0.40603000  0.17360000  1.0
  C  C556  1  0.01810000  0.41080000  0.19700000  1.0
  C  C557  1  0.01691000  0.39060000  0.21296000  1.0
  C  C558  1  0.96391000  0.44411000  0.10605000  1.0
  C  C559  1  0.98338000  0.42367000  0.10293000  1.0
  C  C560  1  0.00449000  0.41754000  0.12040000  1.0
  C  C561  1  0.00619000  0.43140000  0.14155000  1.0
  C  C562  1  0.98623000  0.45123000  0.14504000  1.0
  C  C563  1  0.96534000  0.45767000  0.12741000  1.0
  C  C564  1  0.58215000  0.01343000  0.50944000  1.0
  C  C565  1  0.58855000  0.03884000  0.50311000  1.0
  C  C566  1  0.56820000  0.05814000  0.50693000  1.0
  C  C567  1  0.53509000  0.02818000  0.52328000  1.0
  C  C568  1  0.55514000  0.00817000  0.51970000  1.0
  C  C569  1  0.50644000  0.02314000  0.53399000  1.0
  C  C570  1  0.48444000  0.04205000  0.53440000  1.0
  C  C571  1  0.47532000  0.99385000  0.55338000  1.0
  C  C572  1  0.45728000  0.03640000  0.54429000  1.0
  C  C573  1  0.45299000  0.01195000  0.55391000  1.0
  C  C574  1  0.97888000  0.49060000  0.01944000  1.0
  C  C575  1  0.99311000  0.47455000  0.00373000  1.0
  C  C576  1  0.01811000  0.48336000  0.99287000  1.0
  C  C577  1  0.01579000  0.52372000  0.01239000  1.0
  C  C578  1  0.99030000  0.51554000  0.02365000  1.0
  C  C579  1  0.02868000  0.54973000  0.01632000  1.0
  C  C580  1  0.05671000  0.55604000  0.00825000  1.0
  C  C581  1  0.02369000  0.59237000  0.03068000  1.0
  C  C582  1  0.06812000  0.58107000  0.01133000  1.0
  C  C583  1  0.05119000  0.59939000  0.02259000  1.0
  N  N584  1  0.21234000  0.01520000  0.57144000  1.0
  N  N585  1  0.24873000  0.45092000  0.95855000  1.0
  N  N586  1  0.81989000  0.01173000  0.45308000  1.0
  N  N587  1  0.84890000  0.56997000  0.17131000  1.0
  N  N588  1  0.35785000  0.10673000  0.41952000  1.0
  N  N589  1  0.24407000  0.66546000  0.06285000  1.0
  N  N590  1  0.68298000  0.91855000  0.61303000  1.0
  N  N591  1  0.83167000  0.44353000  0.94641000  1.0
  N  N592  1  0.38987000  0.15100000  0.67054000  1.0
  N  N593  1  0.09574000  0.60168000  0.84851000  1.0
  N  N594  1  0.56751000  0.93518000  0.36504000  1.0
  N  N595  1  0.02987000  0.42734000  0.15852000  1.0
  N  N596  1  0.54228000  0.05247000  0.51676000  1.0
  N  N597  1  0.50114000  0.99972000  0.54351000  1.0
  N  N598  1  0.02876000  0.50735000  0.99741000  1.0
  N  N599  1  0.01314000  0.56807000  0.02737000  1.0
  O  O600  1  0.61498000  0.67277000  0.20419000  1.0
  O  O601  1  0.46456000  0.66373000  0.19139000  1.0
  O  O602  1  0.57144000  0.74424000  0.24198000  1.0
  O  O603  1  0.11580000  0.16815000  0.33965000  1.0
  O  O604  1  0.98865000  0.15257000  0.36007000  1.0
  O  O605  1  0.04092000  0.23483000  0.27762000  1.0
  O  O606  1  0.59862000  0.35872000  0.86932000  1.0
  O  O607  1  0.47056000  0.39144000  0.86137000  1.0
  O  O608  1  0.53054000  0.28700000  0.80689000  1.0
  O  O609  1  0.06044000  0.90085000  0.70756000  1.0
  O  O610  1  0.92554000  0.85782000  0.69155000  1.0
  O  O611  1  0.01326000  0.79079000  0.73844000  1.0
  O  O612  1  0.40676000  0.04710000  0.54966000  1.0
  O  O613  1  0.43892000  0.07921000  0.53763000  1.0
  O  O614  1  0.38395000  0.07982000  0.57942000  1.0
  O  O615  1  0.41261000  0.11361000  0.56500000  1.0
  O  O616  1  0.33362000  0.07529000  0.55576000  1.0
  O  O617  1  0.35327000  0.03818000  0.56816000  1.0
  O  O618  1  0.38051000  0.08829000  0.53223000  1.0
  O  O619  1  0.35902000  0.05147000  0.52230000  1.0
  O  O620  1  0.11581000  0.56920000  0.99869000  1.0
  O  O621  1  0.10326000  0.61260000  0.99897000  1.0
  O  O622  1  0.13363000  0.57650000  0.95583000  1.0
  O  O623  1  0.12885000  0.62136000  0.95846000  1.0
  O  O624  1  0.18697000  0.56347000  0.97079000  1.0
  O  O625  1  0.15103000  0.53496000  0.97769000  1.0
  O  O626  1  0.16044000  0.60093000  0.99345000  1.0
  O  O627  1  0.17172000  0.56639000  0.01382000  1.0
  O  O628  1  0.62865000  0.99897000  0.49583000  1.0
  O  O629  1  0.59574000  0.96883000  0.51039000  1.0
  O  O630  1  0.64068000  0.96915000  0.45986000  1.0
  O  O631  1  0.60771000  0.93864000  0.47440000  1.0
  O  O632  1  0.69462000  0.96525000  0.47721000  1.0
  O  O633  1  0.67897000  0.00559000  0.47190000  1.0
  O  O634  1  0.65126000  0.95320000  0.50489000  1.0
  O  O635  1  0.67952000  0.98601000  0.51622000  1.0
  O  O636  1  0.93913000  0.49658000  0.04567000  1.0
  O  O637  1  0.94559000  0.45632000  0.02840000  1.0
  O  O638  1  0.93242000  0.47528000  0.08701000  1.0
  O  O639  1  0.93802000  0.43480000  0.06955000  1.0
  O  O640  1  0.87791000  0.49107000  0.08581000  1.0
  O  O641  1  0.91223000  0.52162000  0.08097000  1.0
  O  O642  1  0.89498000  0.46350000  0.04967000  1.0
  O  O643  1  0.88151000  0.50315000  0.04175000  1.0
