# generated using pymatgen
data_Zn3H54C32(NO2)8
_symmetry_space_group_name_H-M   'P 1'
_cell_length_a   19.64080000
_cell_length_b   29.35980000
_cell_length_c   29.35980000
_cell_angle_alpha   120.00000000
_cell_angle_beta   90.00000000
_cell_angle_gamma   90.00000000
_symmetry_Int_Tables_number   1
_chemical_formula_structural   Zn3H54C32(NO2)8
_chemical_formula_sum   'Zn18 H324 C192 N48 O96'
_cell_volume   14662.09370152
_cell_formula_units_Z   6
loop_
 _symmetry_equiv_pos_site_id
 _symmetry_equiv_pos_as_xyz
  1  'x, y, z'
loop_
 _atom_site_type_symbol
 _atom_site_label
 _atom_site_symmetry_multiplicity
 _atom_site_fract_x
 _atom_site_fract_y
 _atom_site_fract_z
 _atom_site_occupancy
  C  C0  1  0.75936000  0.79836000  0.06257500  1.0
  C  C1  1  0.71940000  0.69460000  0.15820000  1.0
  C  C2  1  0.76850000  0.82895000  0.24688000  1.0
  C  C3  1  0.60664000  0.78488000  0.33263000  1.0
  C  C4  1  0.55024000  0.79812000  0.19168000  1.0
  C  C5  1  0.67659000  0.89669500  0.17694500  1.0
  C  C6  1  0.60016000  0.71834500  0.06549500  1.0
  C  C7  1  0.53842000  0.84691500  0.02232500  1.0
  C  C8  1  0.81266000  0.84010000  0.68938000  1.0
  C  C9  1  0.69272000  0.76644000  0.57531000  1.0
  C  C10  1  0.75784000  0.68667000  0.65965000  1.0
  C  C11  1  0.55534000  0.72204000  0.64724500  1.0
  C  C12  1  0.72140000  0.83839000  0.79911000  1.0
  C  C13  1  0.58876000  0.86959000  0.70162000  1.0
  C  C14  1  0.07788000  0.64802000  0.89553500  1.0
  C  C15  1  0.15492000  0.70547000  0.80991000  1.0
  C  C16  1  0.27954000  0.63140500  0.88615000  1.0
  C  C17  1  0.27617000  0.79006500  0.95424000  1.0
  C  C18  1  0.58964000  0.81919000  0.38950500  1.0
  C  C19  1  0.60739000  0.76561500  0.43063500  1.0
  C  C20  1  0.65620000  0.75384000  0.46430000  1.0
  C  C21  1  0.64682000  0.85573000  0.47364500  1.0
  C  C22  1  0.69654000  0.84418000  0.50646000  1.0
  C  C23  1  0.72234000  0.79105000  0.54554000  1.0
  C  C24  1  0.76384000  0.64686000  0.13484000  1.0
  C  C25  1  0.59031000  0.88590500  0.02638500  1.0
  C  C26  1  0.69846000  0.88576000  0.98543000  1.0
  C  C27  1  0.73912000  0.85617000  0.93431000  1.0
  C  C28  1  0.59429000  0.86859500  0.93577500  1.0
  C  C29  1  0.63376000  0.83900000  0.88423000  1.0
  C  C30  1  0.74330000  0.82714000  0.84144000  1.0
  C  C31  1  0.12416000  0.89749500  0.05867000  1.0
  C  C32  1  0.18268000  0.87847000  0.01928500  1.0
  C  C33  1  0.20754000  0.92899500  0.13017000  1.0
  C  C34  1  0.26492000  0.90844500  0.08953500  1.0
  C  C35  1  0.29714000  0.84026500  0.00203500  1.0
  C  C36  1  0.13816000  0.73199500  0.77945500  1.0
  C  C37  1  0.14418000  0.82325000  0.79952000  1.0
  C  C38  1  0.18862000  0.87247500  0.82591500  1.0
  C  C39  1  0.24550000  0.76858000  0.77022500  1.0
  C  C40  1  0.29040000  0.81781000  0.79562000  1.0
  C  C41  1  0.29890000  0.91038000  0.82419000  1.0
  C  C42  1  0.82681000  0.80316000  0.04132000  1.0
  C  C43  1  0.94004000  0.76579000  0.02378000  1.0
  C  C44  1  0.98316000  0.71559000  0.99725000  1.0
  C  C45  1  0.84822000  0.71911000  0.96181500  1.0
  C  C46  1  0.89364000  0.66966000  0.93522000  1.0
  C  C47  1  0.01066000  0.63658000  0.91307000  1.0
  C  C48  1  0.46787000  0.89415500  0.26176500  1.0
  C  C49  1  0.38482000  0.86465500  0.19199000  1.0
  C  C50  1  0.47576000  0.80572500  0.18476000  1.0
  C  C51  1  0.95471000  0.87292000  0.62572500  1.0
  C  C52  1  0.93606000  0.91819000  0.72017500  1.0
  C  C53  1  0.88082000  0.83390500  0.66363500  1.0
  C  C54  1  0.36016000  0.62579000  0.66623500  1.0
  C  C55  1  0.38372000  0.67318000  0.66146000  1.0
  C  C56  1  0.45810000  0.63805500  0.72198500  1.0
  C  C57  1  0.48076000  0.68519500  0.71664500  1.0
  C  C58  1  0.48056000  0.72416000  0.66008000  1.0
  C  C59  1  0.57090000  0.92730000  0.72988000  1.0
  C  C60  1  0.44628000  0.92107000  0.73283500  1.0
  C  C61  1  0.37922000  0.94079000  0.72176500  1.0
  C  C62  1  0.00936000  0.61873500  0.77245500  1.0
  C  C63  1  0.93096000  0.68787500  0.78608500  1.0
  C  C64  1  0.89462000  0.71790000  0.76271000  1.0
  C  C65  1  0.89982000  0.64134000  0.67658000  1.0
  C  C66  1  0.81994000  0.71320500  0.69431500  1.0
  C  C67  1  0.29702000  0.65660500  0.94389000  1.0
  C  C68  1  0.38698000  0.66342500  0.00446500  1.0
  C  C69  1  0.46447000  0.66234500  0.01245000  1.0
  C  C70  1  0.40548000  0.69883500  0.94689500  1.0
  C  C71  1  0.48274000  0.69702000  0.95395500  1.0
  C  C72  1  0.57524000  0.70041500  0.01021500  1.0
  C  C73  1  0.90552000  0.89201000  0.20695500  1.0
  C  C74  1  0.90235000  0.90127000  0.29374000  1.0
  C  C75  1  0.83382000  0.83284000  0.22132500  1.0
  C  C76  1  0.66672333  0.41029000  0.08324000  1.0
  C  C77  1  0.66980000  0.58338500  0.49218500  1.0
  C  C78  1  0.20526000  0.48870000  0.75975000  1.0
  C  C79  1  0.05599000  0.57389000  0.73619000  1.0
  C  C80  1  0.13335000  0.44238000  0.58926000  1.0
  C  C81  1  0.29026000  0.57901000  0.72704000  1.0
  C  C82  1  0.70212000  0.58169000  0.14694000  1.0
  C  C83  1  0.66368000  0.52925000  0.11942500  1.0
  C  C84  1  0.76287000  0.55616000  0.06516000  1.0
  C  C85  1  0.72371000  0.50422000  0.03867000  1.0
  C  C86  1  0.67043000  0.43680000  0.05076000  1.0
  C  C87  1  0.69974000  0.53039000  0.45473000  1.0
  C  C88  1  0.60796000  0.47173000  0.40137000  1.0
  C  C89  1  0.56798000  0.45213000  0.35013500  1.0
  C  C90  1  0.71032000  0.47639500  0.35840500  1.0
  C  C91  1  0.67119000  0.45651000  0.30641000  1.0
  C  C92  1  0.57048000  0.40938000  0.25562000  1.0
  C  C93  1  0.24086000  0.44944000  0.76957500  1.0
  C  C94  1  0.21974000  0.47490000  0.86111000  1.0
  C  C95  1  0.18580000  0.45954000  0.89866000  1.0
  C  C96  1  0.36524000  0.58287000  0.71901000  1.0
  C  C97  1  0.93572000  0.61051000  0.69944000  1.0
  C  C98  1  0.60300000  0.37087000  0.20389000  1.0
  C  C99  1  0.20098000  0.33833500  0.91112500  1.0
  C  C100  1  0.17626000  0.40477000  0.59748000  1.0
  C  C101  1  0.14350000  0.31674000  0.52712000  1.0
  C  C102  1  0.26093000  0.33651000  0.55343500  1.0
  C  C103  1  0.21542000  0.38252000  0.79158000  1.0
  C  C104  1  0.18090000  0.36897000  0.82988000  1.0
  C  C105  1  0.17522000  0.39102000  0.92189000  1.0
  C  C106  1  0.36292000  0.92178500  0.21181000  1.0
  C  C107  1  0.98030000  0.92440000  0.63019000  1.0
  C  C108  1  0.81855000  0.30531000  0.07759000  1.0
  C  C109  1  0.28394000  0.29141500  0.50034000  1.0
  C  C110  1  0.74413000  0.28966500  0.06950000  1.0
  C  C111  1  0.72249000  0.23733000  0.22143000  1.0
  C  C112  1  0.58306000  0.22662000  0.05284000  1.0
  C  C113  1  0.55530000  0.25524000  0.19238000  1.0
  C  C114  1  0.16523000  0.27110500  0.47328500  1.0
  C  C115  1  0.75821000  0.25746000  0.27332000  1.0
  C  C116  1  0.26364000  0.18164000  0.96979000  1.0
  C  C117  1  0.37684000  0.21939000  0.97957000  1.0
  C  C118  1  0.45370000  0.20905000  0.97738000  1.0
  C  C119  1  0.93176000  0.26672500  0.04961000  1.0
  C  C120  1  0.97374000  0.22513500  0.00337500  1.0
  C  C121  1  0.86534000  0.28208000  0.98985000  1.0
  C  C122  1  0.90811000  0.24082000  0.94293000  1.0
  C  C123  1  0.25624000  0.20942500  0.42385000  1.0
  C  C124  1  0.21594000  0.15930000  0.39910500  1.0
  C  C125  1  0.76043000  0.18101000  0.09250000  1.0
  C  C126  1  0.22534000  0.16263000  0.77158000  1.0
  C  C127  1  0.05480000  0.20979000  0.88028000  1.0
  C  C128  1  0.23368000  0.18110000  0.92265000  1.0
  C  C129  1  0.11038000  0.16050000  0.11024000  1.0
  C  C130  1  0.82670000  0.15533000  0.06737000  1.0
  C  C131  1  0.81765000  0.24148500  0.33512000  1.0
  C  C132  1  0.85936000  0.20337000  0.34519000  1.0
  C  C133  1  0.85302000  0.19473000  0.24354000  1.0
  C  C134  1  0.89446000  0.15661000  0.25464000  1.0
  C  C135  1  0.35765000  0.14635000  0.99538000  1.0
  C  C136  1  0.43466000  0.13730000  0.99345000  1.0
  C  C137  1  0.54652000  0.17846000  0.01160000  1.0
  C  C138  1  0.01802000  0.19340000  0.91518000  1.0
  C  C139  1  0.39882000  0.16401000  0.22623500  1.0
  C  C140  1  0.44278000  0.20984500  0.23040500  1.0
  C  C141  1  0.47930000  0.25757000  0.18472000  1.0
  C  C142  1  0.03024000  0.13591000  0.29993000  1.0
  C  C143  1  0.25706000  0.12684000  0.25568000  1.0
  C  C144  1  0.13268000  0.13092000  0.13618000  1.0
  C  C145  1  0.17288000  0.12740500  0.66080000  1.0
  C  C146  1  0.26618000  0.14873000  0.72305000  1.0
  C  C147  1  0.13531000  0.12087000  0.01732000  1.0
  C  C148  1  0.01653000  0.12862000  0.04639000  1.0
  C  C149  1  0.78834000  0.13890000  0.98026000  1.0
  C  C150  1  0.95902000  0.14803000  0.32241500  1.0
  C  C151  1  0.36820000  0.21690500  0.16910500  1.0
  C  C152  1  0.59008000  0.07736000  0.09940000  1.0
  C  C153  1  0.28212000  0.06669000  0.79362000  1.0
  C  C154  1  0.28553000  0.08895000  0.63084500  1.0
  C  C155  1  0.14338000  0.08659000  0.60733500  1.0
  C  C156  1  0.11414000  0.07796000  0.96280000  1.0
  C  C157  1  0.99643000  0.08715500  0.99006500  1.0
  C  C158  1  0.02214000  0.05113000  0.89725500  1.0
  C  C159  1  0.79934000  0.10075000  0.92174500  1.0
  C  C160  1  0.79443000  0.06563000  0.99724000  1.0
  C  C161  1  0.28510000  0.12215000  0.20539500  1.0
  C  C162  1  0.32498000  0.17109500  0.16424000  1.0
  C  C163  1  0.66107000  0.06220500  0.10545500  1.0
  C  C164  1  0.19956000  0.04887500  0.47414000  1.0
  C  C165  1  0.07194000  0.05105000  0.85857000  1.0
  C  C166  1  0.08146000  0.01268000  0.32622000  1.0
  C  C167  1  0.28526000  0.02379500  0.30671500  1.0
  C  C168  1  0.10460000  0.01492000  0.18912000  1.0
  C  C169  1  0.09246000  0.02526500  0.73132500  1.0
  C  C170  1  0.72266000  0.01378000  0.81819000  1.0
  C  C171  1  0.16854000  0.03582500  0.51292000  1.0
  C  C172  1  0.25489000  0.04821000  0.57815500  1.0
  C  C173  1  0.62061000  0.00539500  0.19277500  1.0
  C  C174  1  0.62382000  0.04656500  0.17598500  1.0
  C  C175  1  0.73178000  0.01263000  0.13236000  1.0
  C  C176  1  0.80452000  0.02746000  0.93824500  1.0
  C  C177  1  0.78132000  0.01080000  0.84951000  1.0
  C  C178  1  0.35722000  0.01073000  0.28681000  1.0
  C  C179  1  0.04112000  0.00600000  0.68828500  1.0
  C  C180  1  0.50112000  0.00081000  0.74650000  1.0
  C  C181  1  0.43282000  0.02131000  0.73859000  1.0
  C  C182  1  0.30884000  0.01851000  0.74457000  1.0
  C  C183  1  0.01516000  0.00992000  0.29811000  1.0
  C  C184  1  0.93856000  0.94661000  0.23047500  1.0
  C  C185  1  0.26610000  0.95769000  0.82658000  1.0
  C  C186  1  0.69027000  0.95289000  0.21816000  1.0
  C  C187  1  0.09036000  0.96014500  0.14737000  1.0
  C  C188  1  0.73274000  0.97207500  0.15047500  1.0
  C  C189  1  0.44722000  0.95142500  0.28134000  1.0
  C  C190  1  0.96008000  0.96957500  0.72449500  1.0
  C  C191  1  0.93516000  0.95619500  0.31666000  1.0
  H  H192  1  0.44672000  0.81482000  0.99238000  1.0
  H  H193  1  0.57802000  0.71989000  0.26454000  1.0
  H  H194  1  0.28932000  0.74303500  0.87544000  1.0
  H  H195  1  0.62556000  0.81501500  0.53736000  1.0
  H  H196  1  0.59581000  0.86058000  0.39841500  1.0
  H  H197  1  0.53509000  0.81393000  0.39642000  1.0
  H  H198  1  0.60102000  0.72902500  0.39205500  1.0
  H  H199  1  0.55670000  0.77691000  0.45044000  1.0
  H  H200  1  0.70404000  0.73711000  0.44148000  1.0
  H  H201  1  0.63236000  0.72343000  0.47115000  1.0
  H  H202  1  0.59800000  0.87107000  0.49557500  1.0
  H  H203  1  0.66997000  0.88682500  0.46750500  1.0
  H  H204  1  0.74679000  0.83308000  0.48598000  1.0
  H  H205  1  0.70339000  0.88113000  0.54477000  1.0
  H  H206  1  0.74753000  0.82828000  0.57515000  1.0
  H  H207  1  0.76340000  0.76506000  0.51910000  1.0
  H  H208  1  0.79855000  0.64971000  0.10628500  1.0
  H  H209  1  0.79678000  0.64804000  0.16634500  1.0
  H  H210  1  0.66762000  0.61166500  0.17686500  1.0
  H  H211  1  0.70378000  0.89815000  0.90004000  1.0
  H  H212  1  0.56436000  0.92283500  0.03400500  1.0
  H  H213  1  0.62379000  0.89500000  0.06023500  1.0
  H  H214  1  0.72565000  0.88137000  0.01617000  1.0
  H  H215  1  0.69615000  0.92851000  0.99830000  1.0
  H  H216  1  0.74565000  0.81450000  0.92462000  1.0
  H  H217  1  0.79046000  0.87450000  0.94116000  1.0
  H  H218  1  0.58924000  0.91085000  0.94714000  1.0
  H  H219  1  0.54258000  0.85120500  0.92863500  1.0
  H  H220  1  0.63308000  0.79620000  0.87121000  1.0
  H  H221  1  0.60678000  0.84466000  0.85410000  1.0
  H  H222  1  0.79824000  0.83779000  0.84859000  1.0
  H  H223  1  0.73903000  0.78421500  0.82728500  1.0
  H  H224  1  0.22480000  0.83405500  0.04963000  1.0
  H  H225  1  0.08432000  0.93416000  0.16471500  1.0
  H  H226  1  0.08200000  0.91011500  0.04217500  1.0
  H  H227  1  0.10558000  0.86440000  0.06383500  1.0
  H  H228  1  0.19785000  0.91031500  0.01113000  1.0
  H  H229  1  0.16328000  0.84499500  0.98203000  1.0
  H  H230  1  0.19524000  0.89873500  0.14133000  1.0
  H  H231  1  0.30836000  0.89700500  0.10601500  1.0
  H  H232  1  0.33995000  0.83042500  0.02020500  1.0
  H  H233  1  0.31611000  0.86878500  0.99042500  1.0
  H  H234  1  0.71475000  0.93404000  0.11731000  1.0
  H  H235  1  0.24538000  0.85488500  0.75926500  1.0
  H  H236  1  0.14492000  0.70469500  0.73641000  1.0
  H  H237  1  0.08310000  0.74223500  0.78631000  1.0
  H  H238  1  0.09644000  0.83177500  0.82279000  1.0
  H  H239  1  0.13088000  0.81366000  0.75872000  1.0
  H  H240  1  0.19704000  0.88376500  0.86785000  1.0
  H  H241  1  0.15952000  0.90453500  0.82514000  1.0
  H  H242  1  0.23631000  0.75638000  0.72813500  1.0
  H  H243  1  0.27322000  0.73635500  0.77181000  1.0
  H  H244  1  0.30488000  0.82629000  0.83587000  1.0
  H  H245  1  0.33776000  0.80919000  0.77186000  1.0
  H  H246  1  0.34704000  0.90271000  0.80169000  1.0
  H  H247  1  0.31238000  0.91944000  0.86477000  1.0
  H  H248  1  0.97372000  0.70749000  0.92297500  1.0
  H  H249  1  0.81952000  0.81743500  0.01286500  1.0
  H  H250  1  0.85437000  0.83499000  0.07567500  1.0
  H  H251  1  0.95360000  0.78747500  0.06625500  1.0
  H  H252  1  0.95345000  0.79103000  0.00657500  1.0
  H  H253  1  0.97378000  0.69238500  0.01728000  1.0
  H  H254  1  0.03748000  0.72748000  0.00331500  1.0
  H  H255  1  0.85356000  0.74057000  0.93955500  1.0
  H  H256  1  0.79438000  0.70629500  0.95885000  1.0
  H  H257  1  0.88310000  0.64450000  0.95295000  1.0
  H  H258  1  0.02132000  0.61962000  0.93881000  1.0
  H  H259  1  0.48766000  0.87596000  0.18490500  1.0
  H  H260  1  0.43768000  0.87866000  0.28326000  1.0
  H  H261  1  0.52253000  0.89405500  0.27161500  1.0
  H  H262  1  0.35114000  0.84753000  0.21018500  1.0
  H  H263  1  0.37674000  0.84200500  0.14865000  1.0
  H  H264  1  0.46515000  0.78247500  0.14178000  1.0
  H  H265  1  0.44440000  0.78905500  0.20461000  1.0
  H  H266  1  0.86368000  0.90335000  0.66258000  1.0
  H  H267  1  0.99898000  0.85027000  0.62788500  1.0
  H  H268  1  0.93030000  0.84924000  0.58651000  1.0
  H  H269  1  0.98046000  0.89838000  0.72665000  1.0
  H  H270  1  0.89902000  0.92800000  0.75232000  1.0
  H  H271  1  0.91792000  0.81818500  0.68104500  1.0
  H  H272  1  0.87502000  0.80262000  0.62172000  1.0
  H  H273  1  0.48032000  0.64418000  0.63492000  1.0
  H  H274  1  0.35858000  0.70950000  0.69265000  1.0
  H  H275  1  0.36640000  0.66681000  0.62261000  1.0
  H  H276  1  0.48530000  0.60214500  0.69184500  1.0
  H  H277  1  0.47398000  0.64574500  0.76157000  1.0
  H  H278  1  0.45904000  0.72186500  0.74997000  1.0
  H  H279  1  0.53722000  0.68793500  0.71983500  1.0
  H  H280  1  0.46834000  0.76208500  0.69628000  1.0
  H  H281  1  0.45278000  0.72363000  0.62677000  1.0
  H  H282  1  0.57540000  0.94235000  0.77297000  1.0
  H  H283  1  0.44908000  0.93298000  0.77533000  1.0
  H  H284  1  0.44592000  0.87751500  0.70947500  1.0
  H  H285  1  0.33678000  0.92221000  0.73123000  1.0
  H  H286  1  0.81626000  0.66436000  0.72697000  1.0
  H  H287  1  0.03890000  0.64833500  0.80638500  1.0
  H  H288  1  0.96190000  0.71674000  0.82006000  1.0
  H  H289  1  0.89180000  0.67115500  0.80119500  1.0
  H  H290  1  0.93336000  0.73934500  0.75275500  1.0
  H  H291  1  0.86090000  0.74763500  0.79379500  1.0
  H  H292  1  0.93935000  0.65946000  0.66331000  1.0
  H  H293  1  0.85678000  0.72191000  0.67085000  1.0
  H  H294  1  0.80488000  0.75195000  0.72689000  1.0
  H  H295  1  0.48294000  0.74039500  0.03554000  1.0
  H  H296  1  0.27478000  0.69597500  0.96799000  1.0
  H  H297  1  0.27194000  0.63147500  0.95741000  1.0
  H  H298  1  0.36390000  0.63057000  0.00768500  1.0
  H  H299  1  0.36552000  0.70115500  0.03647000  1.0
  H  H300  1  0.48414000  0.62248500  0.98370000  1.0
  H  H301  1  0.47314000  0.66895500  0.05273000  1.0
  H  H302  1  0.38576000  0.73820500  0.97669000  1.0
  H  H303  1  0.39594000  0.69324500  0.90709000  1.0
  H  H304  1  0.50266000  0.65885500  0.92168500  1.0
  H  H305  1  0.50644000  0.72900500  0.94956000  1.0
  H  H306  1  0.60092000  0.72524500  0.99659000  1.0
  H  H307  1  0.59283000  0.65926500  0.98400500  1.0
  H  H308  1  0.82166000  0.91402000  0.25600500  1.0
  H  H309  1  0.94650000  0.86162500  0.19222500  1.0
  H  H310  1  0.87420000  0.88577000  0.17272500  1.0
  H  H311  1  0.94356000  0.87189000  0.28493500  1.0
  H  H312  1  0.86902000  0.90175500  0.32452500  1.0
  H  H313  1  0.87192000  0.80603500  0.22373000  1.0
  H  H314  1  0.82448000  0.81657000  0.17896000  1.0
  H  H315  1  0.30364000  0.62463000  0.66456000  1.0
  H  H316  1  0.60370000  0.64001500  0.49904500  1.0
  H  H317  1  0.69946000  0.41023000  0.14903500  1.0
  H  H318  1  0.07301000  0.45179000  0.53848000  1.0
  H  H319  1  0.22206000  0.42719000  0.61956000  1.0
  H  H320  1  0.75183000  0.48374000  0.09364000  1.0
  H  H321  1  0.74720000  0.57731000  0.16759000  1.0
  H  H322  1  0.61513000  0.53465500  0.10298000  1.0
  H  H323  1  0.65055000  0.51833500  0.14954500  1.0
  H  H324  1  0.81277000  0.55016000  0.07964000  1.0
  H  H325  1  0.77297000  0.56744000  0.03483000  1.0
  H  H326  1  0.67690000  0.50877000  0.01977000  1.0
  H  H327  1  0.75673000  0.47408000  0.00723000  1.0
  H  H328  1  0.69729000  0.40878000  0.01381500  1.0
  H  H329  1  0.61799000  0.44091000  0.03876000  1.0
  H  H330  1  0.75460000  0.53704000  0.45045000  1.0
  H  H331  1  0.69874000  0.50505000  0.47303000  1.0
  H  H332  1  0.57252000  0.49425000  0.43484000  1.0
  H  H333  1  0.62764000  0.43741000  0.40391000  1.0
  H  H334  1  0.54354000  0.48672000  0.35067500  1.0
  H  H335  1  0.52686000  0.42569000  0.34941500  1.0
  H  H336  1  0.73369000  0.44250000  0.35986000  1.0
  H  H337  1  0.75186000  0.50260500  0.35938500  1.0
  H  H338  1  0.65412000  0.49126000  0.30359000  1.0
  H  H339  1  0.70696000  0.43333500  0.27340500  1.0
  H  H340  1  0.55494000  0.44520000  0.25424500  1.0
  H  H341  1  0.52232000  0.39029000  0.25732000  1.0
  H  H342  1  0.24872000  0.41335000  0.73053000  1.0
  H  H343  1  0.29272000  0.46465500  0.78532500  1.0
  H  H344  1  0.20222000  0.51504000  0.87198000  1.0
  H  H345  1  0.27596000  0.47628000  0.86728000  1.0
  H  H346  1  0.12948000  0.46370000  0.89744000  1.0
  H  H347  1  0.20345000  0.48751000  0.93930000  1.0
  H  H348  1  0.87938000  0.64700500  0.89289000  1.0
  H  H349  1  0.98490000  0.60497000  0.87744000  1.0
  H  H350  1  0.39162000  0.58392500  0.75312500  1.0
  H  H351  1  0.38229000  0.54661500  0.68274500  1.0
  H  H352  1  0.38000000  0.58902000  0.63186000  1.0
  H  H353  1  0.96996000  0.60208500  0.78735500  1.0
  H  H354  1  0.89744000  0.58784500  0.70818500  1.0
  H  H355  1  0.97010000  0.58276000  0.66781000  1.0
  H  H356  1  0.87116000  0.61260000  0.64129000  1.0
  H  H357  1  0.14836000  0.39325000  0.62323000  1.0
  H  H358  1  0.09428000  0.33228000  0.52211000  1.0
  H  H359  1  0.13512000  0.30172000  0.55489000  1.0
  H  H360  1  0.16761000  0.28578500  0.44485500  1.0
  H  H361  1  0.25566000  0.32241000  0.58223000  1.0
  H  H362  1  0.30137000  0.36713000  0.56774000  1.0
  H  H363  1  0.29499000  0.30765500  0.47390500  1.0
  H  H364  1  0.62968000  0.38901000  0.30163500  1.0
  H  H365  1  0.25778000  0.40311000  0.88559000  1.0
  H  H366  1  0.27132000  0.37533500  0.79131500  1.0
  H  H367  1  0.19497000  0.35538000  0.75163000  1.0
  H  H368  1  0.12453000  0.37116000  0.82680000  1.0
  H  H369  1  0.19450000  0.32760000  0.81744000  1.0
  H  H370  1  0.11850000  0.39077000  0.92032000  1.0
  H  H371  1  0.19160000  0.42040000  0.96243000  1.0
  H  H372  1  0.82292000  0.34626000  0.08487000  1.0
  H  H373  1  0.88814000  0.32185000  0.00473000  1.0
  H  H374  1  0.37570000  0.92714000  0.67890000  1.0
  H  H375  1  0.28584000  0.29526000  0.90351000  1.0
  H  H376  1  0.01962000  0.91435000  0.59936000  1.0
  H  H377  1  0.83496000  0.30696000  0.11470000  1.0
  H  H378  1  0.95708000  0.30587500  0.06633500  1.0
  H  H379  1  0.45938000  0.29509000  0.21790000  1.0
  H  H380  1  0.22704000  0.23187000  0.50022500  1.0
  H  H381  1  0.12542000  0.24006500  0.45953000  1.0
  H  H382  1  0.33224000  0.27543000  0.50656500  1.0
  H  H383  1  0.25742000  0.22594500  0.39689500  1.0
  H  H384  1  0.79349000  0.28995000  0.27968500  1.0
  H  H385  1  0.71753000  0.27529500  0.30363000  1.0
  H  H386  1  0.84937000  0.27705000  0.34586500  1.0
  H  H387  1  0.88732000  0.22669000  0.24715000  1.0
  H  H388  1  0.45600000  0.21349000  0.05029000  1.0
  H  H389  1  0.25234000  0.22005000  0.00572000  1.0
  H  H390  1  0.36332000  0.25061000  0.02034000  1.0
  H  H391  1  0.36538000  0.23436500  0.95235500  1.0
  H  H392  1  0.48038000  0.24688500  0.99026500  1.0
  H  H393  1  0.00346000  0.27220000  0.97347000  1.0
  H  H394  1  0.93077000  0.25557000  0.08061000  1.0
  H  H395  1  0.02576000  0.22500500  0.01835000  1.0
  H  H396  1  0.81364000  0.28261000  0.97500000  1.0
  H  H397  1  0.91048000  0.25278000  0.91255000  1.0
  H  H398  1  0.42458000  0.24751000  0.26439000  1.0
  H  H399  1  0.49606000  0.20332000  0.23859000  1.0
  H  H400  1  0.30770000  0.92192500  0.20371000  1.0
  H  H401  1  0.77282000  0.25395000  0.36182000  1.0
  H  H402  1  0.30940000  0.19788500  0.42685000  1.0
  H  H403  1  0.18470000  0.16393000  0.65956000  1.0
  H  H404  1  0.27624000  0.18502000  0.72096000  1.0
  H  H405  1  0.06904000  0.18827000  0.13407500  1.0
  H  H406  1  0.15361000  0.18556000  0.11114000  1.0
  H  H407  1  0.13534000  0.15970500  0.01901000  1.0
  H  H408  1  0.00799000  0.16875000  0.05273000  1.0
  H  H409  1  0.86442000  0.18595000  0.07350000  1.0
  H  H410  1  0.81150000  0.17705000  0.99003500  1.0
  H  H411  1  0.94982000  0.21562000  0.31683000  1.0
  H  H412  1  0.87622000  0.22505000  0.38699000  1.0
  H  H413  1  0.83438000  0.17241500  0.20231500  1.0
  H  H414  1  0.23670000  0.15071000  0.97387000  1.0
  H  H415  1  0.34157000  0.17149500  0.03718500  1.0
  H  H416  1  0.46862000  0.18143500  0.93578000  1.0
  H  H417  1  0.56922000  0.16698000  0.97256000  1.0
  H  H418  1  0.55794000  0.14575000  0.01936000  1.0
  H  H419  1  0.94979000  0.18597000  0.98967000  1.0
  H  H420  1  0.88120000  0.20225000  0.92545000  1.0
  H  H421  1  0.98524000  0.15873000  0.89053000  1.0
  H  H422  1  0.05986000  0.18054000  0.93143000  1.0
  H  H423  1  0.46032000  0.17742000  0.15018000  1.0
  H  H424  1  0.34568000  0.25458500  0.20029500  1.0
  H  H425  1  0.42186000  0.12604000  0.19597500  1.0
  H  H426  1  0.40132000  0.16559000  0.26473000  1.0
  H  H427  1  0.47218000  0.25882000  0.14774000  1.0
  H  H428  1  0.09936000  0.10494500  0.59879500  1.0
  H  H429  1  0.13300000  0.13700000  0.69117000  1.0
  H  H430  1  0.31648000  0.13503000  0.72903000  1.0
  H  H431  1  0.04234000  0.12589500  0.95677500  1.0
  H  H432  1  0.18779000  0.11206000  0.02503000  1.0
  H  H433  1  0.98324000  0.12347500  0.07411500  1.0
  H  H434  1  0.84672000  0.13509500  0.08801000  1.0
  H  H435  1  0.73270000  0.14478000  0.98879000  1.0
  H  H436  1  0.82598000  0.17026500  0.33978000  1.0
  H  H437  1  0.93770000  0.14177000  0.22661500  1.0
  H  H438  1  0.96480000  0.16557000  0.36572000  1.0
  H  H439  1  0.33240000  0.10741000  0.97944000  1.0
  H  H440  1  0.44991000  0.10765000  0.95254000  1.0
  H  H441  1  0.44620000  0.12083000  0.01950000  1.0
  H  H442  1  0.28344000  0.07718500  0.45574500  1.0
  H  H443  1  0.66112000  0.06253000  0.80649000  1.0
  H  H444  1  0.22146000  0.07505000  0.67835000  1.0
  H  H445  1  0.30502000  0.12265000  0.62712000  1.0
  H  H446  1  0.32952000  0.07043000  0.63931000  1.0
  H  H447  1  0.12476000  0.05165000  0.60919500  1.0
  H  H448  1  0.64913000  0.08283000  0.20719000  1.0
  H  H449  1  0.57031000  0.05660500  0.17242500  1.0
  H  H450  1  0.69104000  0.09775000  0.13214000  1.0
  H  H451  1  0.15140000  0.07937500  0.93523500  1.0
  H  H452  1  0.94428000  0.09606500  0.98251500  1.0
  H  H453  1  0.97190000  0.06371500  0.88993500  1.0
  H  H454  1  0.85490000  0.09846000  0.91313000  1.0
  H  H455  1  0.77382000  0.11748500  0.89971500  1.0
  H  H456  1  0.73927000  0.06800000  0.00680000  1.0
  H  H457  1  0.86192000  0.12216000  0.24635000  1.0
  H  H458  1  0.93164000  0.11016000  0.30874000  1.0
  H  H459  1  0.43270000  0.06492000  0.76328000  1.0
  H  H460  1  0.31557000  0.08521000  0.18507500  1.0
  H  H461  1  0.24184000  0.11585500  0.17940000  1.0
  H  H462  1  0.27178000  0.17784500  0.15609000  1.0
  H  H463  1  0.34337000  0.13363000  0.12990500  1.0
  H  H464  1  0.36478000  0.21664500  0.13116000  1.0
  H  H465  1  0.16728000  0.05918500  0.12249500  1.0
  H  H466  1  0.28246000  0.94048500  0.08240500  1.0
  H  H467  1  0.11223000  0.03926500  0.51122000  1.0
  H  H468  1  0.39138000  0.93684500  0.18911000  1.0
  H  H469  1  0.99586000  0.04754500  0.98655500  1.0
  H  H470  1  0.11778000  0.03868000  0.95987000  1.0
  H  H471  1  0.82914000  0.01954000  0.83494000  1.0
  H  H472  1  0.49416000  0.05127000  0.07433000  1.0
  H  H473  1  0.24208000  0.03463000  0.87505000  1.0
  H  H474  1  0.17893000  0.99372500  0.49977500  1.0
  H  H475  1  0.29463000  0.03677000  0.54737500  1.0
  H  H476  1  0.24001000  0.01240000  0.57986500  1.0
  H  H477  1  0.63722000  0.99034500  0.09713500  1.0
  H  H478  1  0.59395000  0.02298500  0.23129500  1.0
  H  H479  1  0.75911000  0.04873000  0.16193000  1.0
  H  H480  1  0.75996000  0.99594500  0.09444500  1.0
  H  H481  1  0.68521000  0.04311000  0.06591000  1.0
  H  H482  1  0.01740000  0.01062000  0.89114000  1.0
  H  H483  1  0.71944000  0.05163000  0.91551000  1.0
  H  H484  1  0.82228000  0.04990000  0.01939000  1.0
  H  H485  1  0.86006000  0.02120500  0.92939500  1.0
  H  H486  1  0.36594000  0.02103000  0.25546500  1.0
  H  H487  1  0.38978000  0.03807000  0.32062000  1.0
  H  H488  1  0.00216000  0.03672000  0.69622500  1.0
  H  H489  1  0.06914000  0.99714000  0.65184000  1.0
  H  H490  1  0.91565000  0.99160000  0.72144500  1.0
  H  H491  1  0.98357000  0.99376000  0.76391500  1.0
  H  H492  1  0.37926000  0.01011000  0.79319500  1.0
  H  H493  1  0.54194000  0.01683500  0.73220500  1.0
  H  H494  1  0.50888000  0.01707000  0.78962000  1.0
  H  H495  1  0.42902000  0.01098500  0.69657500  1.0
  H  H496  1  0.31380000  0.02927000  0.71331000  1.0
  H  H497  1  0.98178000  0.04258000  0.32627500  1.0
  H  H498  1  0.02546000  0.01849000  0.26625000  1.0
  H  H499  1  0.78144000  0.98906000  0.92871000  1.0
  H  H500  1  0.61084000  0.94542500  0.71731500  1.0
  H  H501  1  0.97136000  0.94639000  0.19960000  1.0
  H  H502  1  0.04160000  0.96057500  0.12820500  1.0
  H  H503  1  0.78626000  0.96968500  0.84102500  1.0
  H  H504  1  0.74034000  0.95565500  0.23669500  1.0
  H  H505  1  0.78616000  0.96686000  0.15953000  1.0
  H  H506  1  0.22690000  0.96466500  0.16555000  1.0
  H  H507  1  0.65189000  0.96476500  0.24995500  1.0
  H  H508  1  0.59030000  0.97132500  0.16337000  1.0
  H  H509  1  0.45474000  0.97377000  0.32467000  1.0
  H  H510  1  0.48158000  0.96841000  0.26331000  1.0
  H  H511  1  0.93754000  0.94512000  0.62313500  1.0
  H  H512  1  0.26932000  0.98740500  0.72933000  1.0
  H  H513  1  0.89822000  0.97701000  0.24067500  1.0
  H  H514  1  0.89418000  0.98652000  0.32963000  1.0
  H  H515  1  0.96482000  0.96396000  0.35196500  1.0
  N  N516  1  0.63516000  0.80785500  0.42261500  1.0
  N  N517  1  0.67074000  0.80186500  0.51531500  1.0
  N  N518  1  0.62968000  0.86307500  0.97709000  1.0
  N  N519  1  0.70460000  0.85862000  0.89073000  1.0
  N  N520  1  0.24087000  0.86267500  0.04042000  1.0
  N  N521  1  0.18072000  0.77944000  0.79912500  1.0
  N  N522  1  0.25458000  0.86333000  0.79798500  1.0
  N  N523  1  0.86644000  0.75352000  0.01786000  1.0
  N  N524  1  0.96656000  0.68421000  0.94056000  1.0
  N  N525  1  0.45724000  0.86152000  0.20434500  1.0
  N  N526  1  0.90508000  0.88377000  0.66788000  1.0
  N  N527  1  0.38340000  0.63042500  0.71628500  1.0
  N  N528  1  0.45868000  0.67869000  0.66558000  1.0
  N  N529  1  0.50438000  0.94243500  0.71765500  1.0
  N  N530  1  0.97562000  0.64591000  0.74702000  1.0
  N  N531  1  0.85385000  0.68219000  0.71566000  1.0
  N  N532  1  0.37160000  0.65701500  0.95230000  1.0
  N  N533  1  0.49990000  0.70336500  0.00604000  1.0
  N  N534  1  0.86206000  0.88733500  0.24572000  1.0
  N  N535  1  0.72318000  0.59796000  0.10876000  1.0
  N  N536  1  0.70623000  0.48804000  0.07744000  1.0
  N  N537  1  0.66409000  0.50586000  0.40336000  1.0
  N  N538  1  0.61216000  0.42351500  0.30311500  1.0
  N  N539  1  0.20198000  0.43754000  0.80554500  1.0
  N  N540  1  0.19623000  0.35815000  0.54725000  1.0
  N  N541  1  0.20444000  0.40518000  0.88410000  1.0
  N  N542  1  0.14662000  0.94205000  0.10919500  1.0
  N  N543  1  0.23192000  0.24930000  0.47665500  1.0
  N  N544  1  0.86198000  0.26875000  0.03226000  1.0
  N  N545  1  0.97802000  0.23616500  0.95943500  1.0
  N  N546  1  0.79442000  0.21680000  0.27985000  1.0
  N  N547  1  0.91906000  0.18348500  0.30985500  1.0
  N  N548  1  0.33766000  0.17072500  0.96381000  1.0
  N  N549  1  0.47186000  0.18718000  0.01162000  1.0
  N  N550  1  0.44020000  0.21229000  0.18117000  1.0
  N  N551  1  0.08825000  0.12202500  0.05658500  1.0
  N  N552  1  0.82132000  0.11761000  0.01056500  1.0
  N  N553  1  0.32694000  0.16796500  0.21301000  1.0
  N  N554  1  0.19564000  0.07121000  0.56623500  1.0
  N  N555  1  0.23472000  0.10720000  0.67377500  1.0
  N  N556  1  0.04402000  0.08820500  0.95175500  1.0
  N  N557  1  0.66092000  0.02507000  0.12543000  1.0
  N  N558  1  0.77176000  0.04799500  0.90670500  1.0
  N  N559  1  0.37498000  0.99893000  0.75324500  1.0
  N  N560  1  0.69003000  0.98969500  0.19788500  1.0
  N  N561  1  0.37520000  0.95519000  0.26887500  1.0
  N  N562  1  0.01008000  0.95780000  0.68261000  1.0
  N  N563  1  0.97980000  0.95832000  0.27716500  1.0
  O  O564  1  0.56710000  0.77737500  0.22038000  1.0
  O  O565  1  0.59636000  0.80811000  0.16529000  1.0
  O  O566  1  0.62816000  0.88413500  0.14168500  1.0
  O  O567  1  0.71386000  0.86039000  0.17792000  1.0
  O  O568  1  0.60511000  0.68360500  0.08098500  1.0
  O  O569  1  0.62672000  0.76599000  0.09482000  1.0
  O  O570  1  0.54957000  0.81649500  0.04255500  1.0
  O  O571  1  0.48144000  0.84209500  0.99693500  1.0
  O  O572  1  0.70416000  0.81164000  0.04654000  1.0
  O  O573  1  0.75832000  0.79010500  0.10311500  1.0
  O  O574  1  0.68694000  0.70823000  0.20251000  1.0
  O  O575  1  0.72276000  0.72564500  0.13742000  1.0
  O  O576  1  0.77296000  0.83477000  0.29407500  1.0
  O  O577  1  0.71108000  0.80946000  0.21969000  1.0
  O  O578  1  0.65222000  0.80102000  0.31085000  1.0
  O  O579  1  0.56949000  0.74278000  0.30357000  1.0
  O  O580  1  0.57726000  0.68461500  0.60142500  1.0
  O  O581  1  0.59560000  0.76042000  0.68069000  1.0
  O  O582  1  0.72554000  0.88683000  0.80845000  1.0
  O  O583  1  0.70476000  0.79860500  0.75243500  1.0
  O  O584  1  0.55238000  0.83583500  0.66123500  1.0
  O  O585  1  0.64668000  0.85457000  0.71394000  1.0
  O  O586  1  0.78824000  0.88731000  0.72019000  1.0
  O  O587  1  0.77710000  0.79744000  0.67693000  1.0
  O  O588  1  0.68706000  0.71519000  0.55180000  1.0
  O  O589  1  0.68702000  0.79641000  0.62664000  1.0
  O  O590  1  0.75604000  0.63515000  0.63249000  1.0
  O  O591  1  0.71126000  0.71308000  0.64885000  1.0
  O  O592  1  0.26656000  0.60087000  0.77549000  1.0
  O  O593  1  0.16028000  0.73411000  0.86098500  1.0
  O  O594  1  0.16324000  0.65433500  0.78489500  1.0
  O  O595  1  0.22808000  0.64791500  0.86830000  1.0
  O  O596  1  0.22738000  0.76194500  0.95885000  1.0
  O  O597  1  0.30311000  0.77664000  0.90819000  1.0
  O  O598  1  0.10636000  0.69407500  0.92468500  1.0
  O  O599  1  0.10508000  0.61207000  0.85009000  1.0
  O  O600  1  0.70133000  0.42831000  0.12741000  1.0
  O  O601  1  0.69222000  0.61001000  0.54115000  1.0
  O  O602  1  0.62424000  0.60425000  0.47502000  1.0
  O  O603  1  0.25306000  0.54679000  0.68636000  1.0
  O  O604  1  0.31066000  0.58714500  0.85417000  1.0
  O  O605  1  0.18808000  0.47373000  0.71126000  1.0
  O  O606  1  0.20410000  0.53866000  0.79703000  1.0
  O  O607  1  0.02784000  0.53191500  0.69734000  1.0
  O  O608  1  0.12212000  0.57156000  0.74488000  1.0
  O  O609  1  0.12721000  0.49174500  0.62709500  1.0
  O  O610  1  0.10191000  0.42653000  0.54425000  1.0
  O  O611  1  0.57957000  0.36943000  0.16147000  1.0
  O  O612  1  0.64758000  0.33580000  0.20094000  1.0
  O  O613  1  0.70231000  0.30819500  0.11055500  1.0
  O  O614  1  0.62989000  0.36743000  0.06544000  1.0
  O  O615  1  0.26688000  0.33084500  0.91259500  1.0
  O  O616  1  0.71754000  0.27268500  0.02272000  1.0
  O  O617  1  0.57024000  0.27246500  0.05744000  1.0
  O  O618  1  0.62692000  0.22163000  0.08424000  1.0
  O  O619  1  0.75710000  0.23246000  0.12049000  1.0
  O  O620  1  0.57962000  0.28005500  0.24047500  1.0
  O  O621  1  0.59758000  0.23697000  0.15168000  1.0
  O  O622  1  0.72395000  0.26792000  0.20007500  1.0
  O  O623  1  0.23480000  0.22443000  0.91990000  1.0
  O  O624  1  0.03800000  0.25474000  0.88392000  1.0
  O  O625  1  0.15792000  0.29908000  0.89576000  1.0
  O  O626  1  0.68325000  0.19527000  0.20229000  1.0
  O  O627  1  0.19920000  0.13889000  0.88884000  1.0
  O  O628  1  0.23330000  0.20956000  0.81239000  1.0
  O  O629  1  0.11340000  0.18717000  0.85666500  1.0
  O  O630  1  0.12944000  0.15432500  0.18766500  1.0
  O  O631  1  0.70829000  0.15217500  0.09014500  1.0
  O  O632  1  0.30134000  0.13004500  0.29062000  1.0
  O  O633  1  0.04924000  0.14987000  0.26612500  1.0
  O  O634  1  0.21858000  0.12865500  0.41967000  1.0
  O  O635  1  0.19230000  0.14280000  0.35154000  1.0
  O  O636  1  0.18978000  0.12592000  0.77432000  1.0
  O  O637  1  0.19221000  0.11431000  0.25889000  1.0
  O  O638  1  0.15034000  0.08103000  0.10708000  1.0
  O  O639  1  0.07048000  0.10777000  0.31234000  1.0
  O  O640  1  0.26152000  0.06845500  0.48163000  1.0
  O  O641  1  0.57462000  0.12703000  0.11869000  1.0
  O  O642  1  0.07908000  0.09350000  0.85444500  1.0
  O  O643  1  0.31536000  0.11126000  0.81230000  1.0
  O  O644  1  0.21928000  0.06631000  0.81009500  1.0
  O  O645  1  0.08970000  0.07482000  0.77031000  1.0
  O  O646  1  0.70078000  0.05985000  0.82709000  1.0
  O  O647  1  0.09109000  0.05296000  0.17965500  1.0
  O  O648  1  0.26888000  0.02331000  0.34983000  1.0
  O  O649  1  0.24544000  0.04608000  0.28695500  1.0
  O  O650  1  0.13460000  0.02293000  0.23261000  1.0
  O  O651  1  0.13064000  0.04778000  0.33528000  1.0
  O  O652  1  0.16380000  0.04091500  0.43286000  1.0
  O  O653  1  0.54253000  0.04119000  0.07754000  1.0
  O  O654  1  0.11462000  0.01192000  0.83668500  1.0
  O  O655  1  0.26501000  0.00228000  0.87160000  1.0
  O  O656  1  0.13386000  0.99015000  0.73166500  1.0
  O  O657  1  0.23396000  0.95295500  0.78502500  1.0
  O  O658  1  0.69185000  0.97122500  0.78226500  1.0
  O  O659  1  0.08658000  0.98389500  0.34874000  1.0
  Zn  Zn660  1  0.62517000  0.81917500  0.08072000  1.0
  Zn  Zn661  1  0.65394000  0.77397500  0.23901500  1.0
  Zn  Zn662  1  0.68990000  0.79154000  0.15004000  1.0
  Zn  Zn663  1  0.71100000  0.90107000  0.75697000  1.0
  Zn  Zn664  1  0.66665333  0.67969000  0.58589000  1.0
  Zn  Zn665  1  0.68550000  0.78589500  0.68416500  1.0
  Zn  Zn666  1  0.18316000  0.70916500  0.90366000  1.0
  Zn  Zn667  1  0.18032000  0.60465000  0.80479500  1.0
  Zn  Zn668  1  0.17086000  0.52114000  0.69182000  1.0
  Zn  Zn669  1  0.62060000  0.32953000  0.09929000  1.0
  Zn  Zn670  1  0.67680000  0.26984000  0.14479500  1.0
  Zn  Zn671  1  0.18510000  0.23064000  0.87128000  1.0
  Zn  Zn672  1  0.64043000  0.17757000  0.14029000  1.0
  Zn  Zn673  1  0.14824000  0.11681500  0.82721500  1.0
  Zn  Zn674  1  0.11965000  0.11851000  0.22286500  1.0
  Zn  Zn675  1  0.19408000  0.05944500  0.38471000  1.0
  Zn  Zn676  1  0.15986000  0.08044000  0.29650000  1.0
  Zn  Zn677  1  0.17816000  0.00538500  0.79044500  1.0
