# generated using pymatgen
data_Cd2H26C23(NO4)2
_symmetry_space_group_name_H-M   'P 1'
_cell_length_a   11.17675000
_cell_length_b   29.88351457
_cell_length_c   29.87900000
_cell_angle_alpha   120.00300568
_cell_angle_beta   90.00000000
_cell_angle_gamma   90.00000000
_symmetry_Int_Tables_number   1
_chemical_formula_structural   Cd2H26C23(NO4)2
_chemical_formula_sum   'Cd6 H78 C69 N6 O24'
_cell_volume   8642.32801018
_cell_formula_units_Z   3
loop_
 _symmetry_equiv_pos_site_id
 _symmetry_equiv_pos_as_xyz
  1  'x, y, z'
loop_
 _atom_site_type_symbol
 _atom_site_label
 _atom_site_symmetry_multiplicity
 _atom_site_fract_x
 _atom_site_fract_y
 _atom_site_fract_z
 _atom_site_occupancy
  C  C0  1  0.70360000  0.49744000  0.26249000  1.0
  C  C1  1  0.84806000  0.41419000  0.31830000  1.0
  C  C2  1  0.92226000  0.38351000  0.32953000  1.0
  C  C3  1  0.87946000  0.36466000  0.36112000  1.0
  C  C4  1  0.42778000  0.48838000  0.35246000  1.0
  C  C5  1  0.69170000  0.40809000  0.36873000  1.0
  C  C6  1  0.76298000  0.37743000  0.38107000  1.0
  C  C7  1  0.07256000  0.60164000  0.38905000  1.0
  C  C8  1  0.15058000  0.71353000  0.33359000  1.0
  C  C9  1  0.22276000  0.74971000  0.33001000  1.0
  C  C10  1  0.24402000  0.79780000  0.37429000  1.0
  C  C11  1  0.77864000  0.68331000  0.37883000  1.0
  C  C12  1  0.12242000  0.77064000  0.42335000  1.0
  C  C13  1  0.19414000  0.80792000  0.42153000  1.0
  C  C14  1  0.39126000  0.61808000  0.28460000  1.0
  C  C15  1  0.44636000  0.45344000  0.16764000  1.0
  C  C16  1  0.52204000  0.41474000  0.13237000  1.0
  C  C17  1  0.55126000  0.41314000  0.08591000  1.0
  C  C18  1  0.08310000  0.53995000  0.20373000  1.0
  C  C19  1  0.42892000  0.48918000  0.11272000  1.0
  C  C20  1  0.50382000  0.45094000  0.07618000  1.0
  C  C21  1  0.63520000  0.37220000  0.04775000  1.0
  C  C22  1  0.31984000  0.83793000  0.37114000  1.0
  C  C23  1  0.25980000  0.85868000  0.33876000  1.0
  C  C24  1  0.30428000  0.49998000  0.37457000  1.0
  C  C25  1  0.12346000  0.55743000  0.39289000  1.0
  C  C26  1  0.24790000  0.54312000  0.36807000  1.0
  C  C27  1  0.45212000  0.66195000  0.32965000  1.0
  C  C28  1  0.64838000  0.69398000  0.37695000  1.0
  C  C29  1  0.58442000  0.64921000  0.33095000  1.0
  C  C30  1  0.94958000  0.53584000  0.19813000  1.0
  C  C31  1  0.75554000  0.51466000  0.22751000  1.0
  C  C32  1  0.89238000  0.51401000  0.22989000  1.0
  C  C33  1  0.95630000  0.33015000  0.37254000  1.0
  C  C34  1  0.81916000  0.26896000  0.74207000  1.0
  C  C35  1  0.59542000  0.24871000  0.85160000  1.0
  C  C36  1  0.56448000  0.25496000  0.89964000  1.0
  C  C37  1  0.51336000  0.30167000  0.93731000  1.0
  C  C38  1  0.44566000  0.27195000  0.71643000  1.0
  C  C39  1  0.52778000  0.33345000  0.87730000  1.0
  C  C40  1  0.49546000  0.34134000  0.92587000  1.0
  C  C41  1  0.14560000  0.30452000  0.62424000  1.0
  C  C42  1  0.08064000  0.27350000  0.48192000  1.0
  C  C43  1  0.08844000  0.26783000  0.43275000  1.0
  C  C44  1  0.99646000  0.24241000  0.39691000  1.0
  C  C45  1  0.79788000  0.24071000  0.59517000  1.0
  C  C46  1  0.89418000  0.22967000  0.46100000  1.0
  C  C47  1  0.89840000  0.22310000  0.41136000  1.0
  C  C48  1  0.44528000  0.12901000  0.58357000  1.0
  C  C49  1  0.24196000  0.02647000  0.45609000  1.0
  C  C50  1  0.22248000  0.98010000  0.41020000  1.0
  C  C51  1  0.16528000  0.93908000  0.41173000  1.0
  C  C52  1  0.08214000  0.14351000  0.62914000  1.0
  C  C53  1  0.14822000  0.99309000  0.50449000  1.0
  C  C54  1  0.12696000  0.94604000  0.45951000  1.0
  C  C55  1  0.00316000  0.23575000  0.34349000  1.0
  C  C56  1  0.91972000  0.27337000  0.33769000  1.0
  C  C57  1  0.47470000  0.30820000  0.98862000  1.0
  C  C58  1  0.58210000  0.31753000  0.02444000  1.0
  C  C59  1  0.33510000  0.27069000  0.68718000  1.0
  C  C60  1  0.25384000  0.33138000  0.65625000  1.0
  C  C61  1  0.35640000  0.29554000  0.65325000  1.0
  C  C62  1  0.57434000  0.14492000  0.59258000  1.0
  C  C63  1  0.69272000  0.22768000  0.61749000  1.0
  C  C64  1  0.61268000  0.18463000  0.57631000  1.0
  C  C65  1  0.97772000  0.16823000  0.66464000  1.0
  C  C66  1  0.94708000  0.26619000  0.72508000  1.0
  C  C67  1  0.01454000  0.21720000  0.71541000  1.0
  C  C68  1  0.14312000  0.88869000  0.36248000  1.0
  Cd  Cd69  1  0.62520000  0.46930000  0.31822000  1.0
  Cd  Cd70  1  0.98832000  0.67130000  0.38266000  1.0
  Cd  Cd71  1  0.29514000  0.54777000  0.21291000  1.0
  Cd  Cd72  1  0.61372000  0.27545000  0.76792000  1.0
  Cd  Cd73  1  0.97654000  0.26492000  0.56905000  1.0
  Cd  Cd74  1  0.24200000  0.10074000  0.56968000  1.0
  H  H75  1  0.87990000  0.42867000  0.29373000  1.0
  H  H76  1  0.01166000  0.37424000  0.31343000  1.0
  H  H77  1  0.60134000  0.41774000  0.38349000  1.0
  H  H78  1  0.72738000  0.36332000  0.40545000  1.0
  H  H79  1  0.13250000  0.67657000  0.29956000  1.0
  H  H80  1  0.26130000  0.74039000  0.29308000  1.0
  H  H81  1  0.08210000  0.77835000  0.45944000  1.0
  H  H82  1  0.20986000  0.84438000  0.45655000  1.0
  H  H83  1  0.42362000  0.45510000  0.20364000  1.0
  H  H84  1  0.55826000  0.38657000  0.14141000  1.0
  H  H85  1  0.39270000  0.51875000  0.10579000  1.0
  H  H86  1  0.52528000  0.45111000  0.04092000  1.0
  H  H87  1  0.94396000  0.34094000  0.41367000  1.0
  H  H88  1  0.71820000  0.37317000  0.06872000  1.0
  H  H89  1  0.66100000  0.38000000  0.01635000  1.0
  H  H90  1  0.40552000  0.81949000  0.35183000  1.0
  H  H91  1  0.23980000  0.82599000  0.29946000  1.0
  H  H92  1  0.12864000  0.56797000  0.43421000  1.0
  H  H93  1  0.06326000  0.52353000  0.37190000  1.0
  H  H94  1  0.30656000  0.57793000  0.38639000  1.0
  H  H95  1  0.23986000  0.52972000  0.32613000  1.0
  H  H96  1  0.31000000  0.51292000  0.41647000  1.0
  H  H97  1  0.24806000  0.46460000  0.35466000  1.0
  H  H98  1  0.60528000  0.70229000  0.41388000  1.0
  H  H99  1  0.64102000  0.72936000  0.37372000  1.0
  H  H100  1  0.59192000  0.61382000  0.33421000  1.0
  H  H101  1  0.62784000  0.64183000  0.29434000  1.0
  H  H102  1  0.40810000  0.66843000  0.36581000  1.0
  H  H103  1  0.44480000  0.69738000  0.32652000  1.0
  H  H104  1  0.72504000  0.48881000  0.18714000  1.0
  H  H105  1  0.72504000  0.55479000  0.24089000  1.0
  H  H106  1  0.92366000  0.47362000  0.21495000  1.0
  H  H107  1  0.92104000  0.53767000  0.27079000  1.0
  H  H108  1  0.92742000  0.51076000  0.15655000  1.0
  H  H109  1  0.91316000  0.57490000  0.21020000  1.0
  H  H110  1  0.05234000  0.33491000  0.36600000  1.0
  H  H111  1  0.63318000  0.21257000  0.82205000  1.0
  H  H112  1  0.57880000  0.22351000  0.90724000  1.0
  H  H113  1  0.51270000  0.36351000  0.86782000  1.0
  H  H114  1  0.45558000  0.37772000  0.95396000  1.0
  H  H115  1  0.15092000  0.29319000  0.50990000  1.0
  H  H116  1  0.16514000  0.28330000  0.42283000  1.0
  H  H117  1  0.81878000  0.21511000  0.47263000  1.0
  H  H118  1  0.82600000  0.20331000  0.38452000  1.0
  H  H119  1  0.28722000  0.05809000  0.45534000  1.0
  H  H120  1  0.25206000  0.97615000  0.37387000  1.0
  H  H121  1  0.12008000  0.99863000  0.54157000  1.0
  H  H122  1  0.08118000  0.91542000  0.46200000  1.0
  H  H123  1  0.92296000  0.26378000  0.29662000  1.0
  H  H124  1  0.82600000  0.26754000  0.34634000  1.0
  H  H125  1  0.97476000  0.19582000  0.31484000  1.0
  H  H126  1  0.09634000  0.24119000  0.33397000  1.0
  H  H127  1  0.40854000  0.34005000  0.00799000  1.0
  H  H128  1  0.43028000  0.27196000  0.98160000  1.0
  H  H129  1  0.65360000  0.28884000  0.00283000  1.0
  H  H130  1  0.55344000  0.31040000  0.05595000  1.0
  H  H131  1  0.28804000  0.35737000  0.64254000  1.0
  H  H132  1  0.22598000  0.35749000  0.69696000  1.0
  H  H133  1  0.43914000  0.31945000  0.66564000  1.0
  H  H134  1  0.37160000  0.26488000  0.61248000  1.0
  H  H135  1  0.26442000  0.29210000  0.71636000  1.0
  H  H136  1  0.30394000  0.23020000  0.66269000  1.0
  H  H137  1  0.73026000  0.21513000  0.64356000  1.0
  H  H138  1  0.63814000  0.26287000  0.64120000  1.0
  H  H139  1  0.66006000  0.16336000  0.53857000  1.0
  H  H140  1  0.53408000  0.20340000  0.56983000  1.0
  H  H141  1  0.62998000  0.10956000  0.57144000  1.0
  H  H142  1  0.59254000  0.15879000  0.63400000  1.0
  H  H143  1  0.94938000  0.26976000  0.68981000  1.0
  H  H144  1  0.99480000  0.30071000  0.75542000  1.0
  H  H145  1  0.99986000  0.21086000  0.74866000  1.0
  H  H146  1  0.11192000  0.22489000  0.71523000  1.0
  H  H147  1  0.93878000  0.13996000  0.67443000  1.0
  H  H148  1  0.90894000  0.17725000  0.64364000  1.0
  H  H149  1  0.34168000  0.87058000  0.41026000  1.0
  H  H150  1  0.32460000  0.88392000  0.33354000  1.0
  H  H151  1  0.10254000  0.89748000  0.33377000  1.0
  H  H152  1  0.07876000  0.86400000  0.36880000  1.0
  N  N153  1  0.73518000  0.42551000  0.33774000  1.0
  N  N154  1  0.10186000  0.72477000  0.37969000  1.0
  N  N155  1  0.40220000  0.48965000  0.15732000  1.0
  N  N156  1  0.57616000  0.28764000  0.84144000  1.0
  N  N157  1  0.98458000  0.25448000  0.49490000  1.0
  N  N158  1  0.20502000  0.03193000  0.50188000  1.0
  O  O159  1  0.71256000  0.52575000  0.31328000  1.0
  O  O160  1  0.64866000  0.45260000  0.24449000  1.0
  O  O161  1  0.51926000  0.51887000  0.37693000  1.0
  O  O162  1  0.45208000  0.44677000  0.30774000  1.0
  O  O163  1  0.05228000  0.59855000  0.34410000  1.0
  O  O164  1  0.04398000  0.64589000  0.43043000  1.0
  O  O165  1  0.84330000  0.65563000  0.33675000  1.0
  O  O166  1  0.83728000  0.70361000  0.42307000  1.0
  O  O167  1  0.36014000  0.57571000  0.28501000  1.0
  O  O168  1  0.36584000  0.61928000  0.24204000  1.0
  O  O169  1  0.14426000  0.52069000  0.22809000  1.0
  O  O170  1  0.14694000  0.56359000  0.18451000  1.0
  O  O171  1  0.76070000  0.31330000  0.76485000  1.0
  O  O172  1  0.75646000  0.22803000  0.73402000  1.0
  O  O173  1  0.50130000  0.31561000  0.74784000  1.0
  O  O174  1  0.48954000  0.23014000  0.71482000  1.0
  O  O175  1  0.13694000  0.25383000  0.59448000  1.0
  O  O176  1  0.05456000  0.33142000  0.62194000  1.0
  O  O177  1  0.88806000  0.20828000  0.57349000  1.0
  O  O178  1  0.81302000  0.28743000  0.60174000  1.0
  O  O179  1  0.40146000  0.09848000  0.59966000  1.0
  O  O180  1  0.36856000  0.14394000  0.55993000  1.0
  O  O181  1  0.14954000  0.10845000  0.63148000  1.0
  O  O182  1  0.10942000  0.15390000  0.59226000  1.0
