# generated using pymatgen
data_Cd2H9C36(OF)12
_symmetry_space_group_name_H-M   'P 1'
_cell_length_a   16.40910000
_cell_length_b   29.06370000
_cell_length_c   32.98240000
_cell_angle_alpha   90.09000000
_cell_angle_beta   93.85600000
_cell_angle_gamma   94.30200000
_symmetry_Int_Tables_number   1
_chemical_formula_structural   Cd2H9C36(OF)12
_chemical_formula_sum   'Cd8 H36 C144 O48 F48'
_cell_volume   15649.43669189
_cell_formula_units_Z   4
loop_
 _symmetry_equiv_pos_site_id
 _symmetry_equiv_pos_as_xyz
  1  'x, y, z'
loop_
 _atom_site_type_symbol
 _atom_site_label
 _atom_site_symmetry_multiplicity
 _atom_site_fract_x
 _atom_site_fract_y
 _atom_site_fract_z
 _atom_site_occupancy
  C  C0  1  0.11182000  0.12063000  0.31114000  1.0
  C  C1  1  0.08908000  0.16135000  0.32923000  1.0
  C  C2  1  0.07250000  0.19926000  0.30467000  1.0
  C  C3  1  0.07792000  0.19607000  0.26250000  1.0
  C  C4  1  0.10288000  0.15579000  0.24496000  1.0
  C  C5  1  0.11938000  0.11824000  0.26931000  1.0
  C  C6  1  0.07534000  0.61627000  0.19336000  1.0
  C  C7  1  0.08862000  0.66041000  0.17615000  1.0
  C  C8  1  0.09436000  0.69949000  0.20150000  1.0
  C  C9  1  0.08762000  0.69419000  0.24351000  1.0
  C  C10  1  0.07550000  0.64997000  0.26027000  1.0
  C  C11  1  0.06970000  0.61131000  0.23518000  1.0
  C  C12  1  0.15774000  0.84536000  0.68594000  1.0
  C  C13  1  0.12516000  0.87819000  0.71068000  1.0
  C  C14  1  0.11422000  0.86773000  0.75171000  1.0
  C  C15  1  0.13662000  0.82523000  0.76766000  1.0
  C  C16  1  0.17232000  0.79389000  0.74291000  1.0
  C  C17  1  0.18280000  0.80414000  0.70244000  1.0
  C  C18  1  0.97502000  0.33491000  0.81886000  1.0
  C  C19  1  0.00388000  0.37169000  0.79426000  1.0
  C  C20  1  0.02344000  0.36202000  0.75433000  1.0
  C  C21  1  0.01054000  0.31668000  0.73894000  1.0
  C  C22  1  0.97462000  0.28152000  0.76273000  1.0
  C  C23  1  0.95710000  0.29079000  0.80239000  1.0
  C  C24  1  0.28066000  0.36738000  0.06145000  1.0
  C  C25  1  0.99926000  0.35290000  0.99312000  1.0
  C  C26  1  0.75900000  0.36876000  0.07645000  1.0
  C  C27  1  0.03896000  0.44984000  0.09883000  1.0
  C  C28  1  0.02806000  0.31948000  0.13163000  1.0
  C  C29  1  0.87272000  0.87120000  0.44431000  1.0
  C  C30  1  0.14924000  0.86358000  0.51283000  1.0
  C  C31  1  0.39556000  0.87916000  0.43174000  1.0
  C  C32  1  0.13230000  0.95570000  0.40457000  1.0
  C  C33  1  0.11678000  0.82356000  0.37537000  1.0
  C  C34  1  0.32936000  0.61354000  0.92445000  1.0
  C  C35  1  0.08446000  0.63853000  0.00270000  1.0
  C  C36  1  0.80914000  0.62504000  0.93041000  1.0
  C  C37  1  0.04780000  0.54562000  0.88270000  1.0
  C  C38  1  0.07938000  0.69979000  0.89201000  1.0
  C  C39  1  0.34010000  0.12131000  0.58328000  1.0
  C  C40  1  0.07766000  0.04703000  0.62306000  1.0
  C  C41  1  0.81482000  0.11135000  0.56871000  1.0
  C  C42  1  0.07708000  0.13645000  0.50190000  1.0
  C  C43  1  0.07990000  0.19778000  0.61515000  1.0
  C  C44  1  0.66930000  0.36895000  0.08287000  1.0
  C  C45  1  0.54092000  0.36416000  0.05128000  1.0
  C  C46  1  0.49264000  0.32343000  0.05834000  1.0
  C  C47  1  0.50346000  0.40591000  0.04753000  1.0
  C  C48  1  0.40818000  0.32447000  0.06205000  1.0
  C  C49  1  0.41904000  0.40704000  0.05122000  1.0
  C  C50  1  0.37036000  0.36629000  0.05837000  1.0
  C  C51  1  0.78290000  0.86941000  0.45097000  1.0
  C  C52  1  0.65568000  0.87707000  0.42051000  1.0
  C  C53  1  0.60472000  0.83609000  0.41716000  1.0
  C  C54  1  0.62102000  0.91874000  0.42776000  1.0
  C  C55  1  0.52038000  0.83666000  0.42141000  1.0
  C  C56  1  0.53662000  0.91943000  0.43187000  1.0
  C  C57  1  0.48530000  0.87839000  0.42858000  1.0
  C  C58  1  0.72010000  0.63017000  0.93611000  1.0
  C  C59  1  0.58902000  0.60284000  0.91704000  1.0
  C  C60  1  0.54666000  0.57855000  0.94688000  1.0
  C  C61  1  0.54590000  0.63078000  0.88985000  1.0
  C  C62  1  0.46248000  0.58242000  0.94969000  1.0
  C  C63  1  0.46180000  0.63474000  0.89262000  1.0
  C  C64  1  0.41902000  0.61042000  0.92245000  1.0
  C  C65  1  0.72378000  0.11454000  0.56176000  1.0
  C  C66  1  0.60104000  0.10719000  0.59104000  1.0
  C  C67  1  0.56988000  0.14760000  0.60492000  1.0
  C  C68  1  0.54626000  0.07176000  0.57419000  1.0
  C  C69  1  0.48520000  0.15254000  0.60204000  1.0
  C  C70  1  0.46172000  0.07679000  0.57093000  1.0
  C  C71  1  0.43010000  0.11709000  0.58514000  1.0
  C  C72  1  0.97168000  0.25975000  0.17874000  1.0
  C  C73  1  0.98318000  0.23049000  0.21177000  1.0
  C  C74  1  0.05722000  0.23415000  0.23579000  1.0
  C  C75  1  0.11780000  0.26893000  0.22827000  1.0
  C  C76  1  0.10678000  0.29807000  0.19520000  1.0
  C  C77  1  0.03486000  0.29254000  0.16923000  1.0
  C  C78  1  0.03102000  0.77787000  0.32111000  1.0
  C  C79  1  0.02410000  0.74792000  0.28782000  1.0
  C  C80  1  0.09442000  0.73416000  0.27091000  1.0
  C  C81  1  0.17184000  0.75232000  0.28605000  1.0
  C  C82  1  0.17936000  0.78232000  0.31937000  1.0
  C  C83  1  0.10900000  0.79438000  0.33821000  1.0
  C  C84  1  0.02186000  0.75719000  0.84308000  1.0
  C  C85  1  0.03588000  0.79014000  0.81301000  1.0
  C  C86  1  0.11544000  0.80969000  0.80835000  1.0
  C  C87  1  0.17866000  0.80074000  0.83734000  1.0
  C  C88  1  0.16500000  0.76785000  0.86742000  1.0
  C  C89  1  0.08774000  0.74329000  0.86871000  1.0
  C  C90  1  0.99868000  0.26210000  0.63680000  1.0
  C  C91  1  0.98212000  0.29314000  0.66700000  1.0
  C  C92  1  0.03968000  0.30330000  0.69967000  1.0
  C  C93  1  0.11772000  0.28658000  0.69928000  1.0
  C  C94  1  0.13446000  0.25529000  0.66920000  1.0
  C  C95  1  0.07286000  0.24027000  0.63926000  1.0
  C  C96  1  0.91424000  0.33855000  0.92723000  1.0
  C  C97  1  0.90820000  0.33483000  0.88486000  1.0
  C  C98  1  0.97896000  0.33976000  0.86330000  1.0
  C  C99  1  0.05590000  0.34702000  0.88425000  1.0
  C  C100  1  0.06242000  0.35080000  0.92630000  1.0
  C  C101  1  0.99162000  0.34686000  0.94848000  1.0
  C  C102  1  0.05624000  0.00596000  0.35695000  1.0
  C  C103  1  0.05240000  0.04550000  0.33359000  1.0
  C  C104  1  0.11900000  0.07852000  0.33484000  1.0
  C  C105  1  0.19010000  0.07185000  0.35936000  1.0
  C  C106  1  0.19444000  0.03211000  0.38279000  1.0
  C  C107  1  0.12740000  0.99882000  0.38178000  1.0
  C  C108  1  0.16080000  0.64142000  0.07177000  1.0
  C  C109  1  0.16300000  0.64872000  0.11378000  1.0
  C  C110  1  0.09524000  0.66484000  0.13173000  1.0
  C  C111  1  0.02752000  0.67672000  0.10687000  1.0
  C  C112  1  0.02492000  0.66947000  0.06483000  1.0
  C  C113  1  0.09048000  0.65022000  0.04683000  1.0
  C  C114  1  0.15256000  0.00196000  0.67685000  1.0
  C  C115  1  0.16294000  0.96140000  0.69876000  1.0
  C  C116  1  0.10506000  0.92353000  0.69368000  1.0
  C  C117  1  0.03432000  0.92752000  0.66784000  1.0
  C  C118  1  0.02346000  0.96820000  0.64590000  1.0
  C  C119  1  0.08370000  0.00553000  0.64927000  1.0
  C  C120  1  0.09316000  0.83026000  0.57536000  1.0
  C  C121  1  0.09482000  0.82661000  0.61739000  1.0
  C  C122  1  0.15732000  0.85050000  0.64175000  1.0
  C  C123  1  0.21948000  0.87738000  0.62388000  1.0
  C  C124  1  0.21840000  0.88088000  0.58162000  1.0
  C  C125  1  0.15470000  0.85760000  0.55707000  1.0
  C  C126  1  0.10324000  0.48400000  0.83992000  1.0
  C  C127  1  0.09232000  0.44278000  0.81729000  1.0
  C  C128  1  0.01440000  0.41946000  0.81126000  1.0
  C  C129  1  0.94692000  0.43926000  0.82641000  1.0
  C  C130  1  0.95740000  0.48034000  0.84894000  1.0
  C  C131  1  0.03608000  0.50294000  0.85688000  1.0
  C  C132  1  0.14634000  0.17001000  0.44158000  1.0
  C  C133  1  0.14782000  0.17778000  0.39979000  1.0
  C  C134  1  0.08026000  0.16307000  0.37351000  1.0
  C  C135  1  0.00940000  0.14266000  0.38960000  1.0
  C  C136  1  0.00744000  0.13488000  0.43138000  1.0
  C  C137  1  0.07678000  0.14736000  0.45786000  1.0
  C  C138  1  0.98596000  0.52378000  0.12015000  1.0
  C  C139  1  0.99426000  0.56371000  0.14390000  1.0
  C  C140  1  0.06668000  0.57459000  0.16803000  1.0
  C  C141  1  0.13112000  0.54571000  0.16818000  1.0
  C  C142  1  0.12328000  0.50586000  0.14444000  1.0
  C  C143  1  0.05014000  0.49423000  0.12053000  1.0
  Cd  Cd144  1  0.13064000  0.36942000  0.06621000  1.0
  Cd  Cd145  1  0.90904000  0.36929000  0.07126000  1.0
  Cd  Cd146  1  0.02286000  0.87373000  0.43880000  1.0
  Cd  Cd147  1  0.24512000  0.88029000  0.43538000  1.0
  Cd  Cd148  1  0.17848000  0.61768000  0.92627000  1.0
  Cd  Cd149  1  0.95946000  0.62304000  0.92577000  1.0
  Cd  Cd150  1  0.18876000  0.12580000  0.58203000  1.0
  Cd  Cd151  1  0.96734000  0.11360000  0.57480000  1.0
  F  F152  1  0.90138000  0.25372000  0.15454000  1.0
  F  F153  1  0.92448000  0.19648000  0.21872000  1.0
  F  F154  1  0.18984000  0.27249000  0.25127000  1.0
  F  F155  1  0.16744000  0.33084000  0.18798000  1.0
  F  F156  1  0.96112000  0.78924000  0.33718000  1.0
  F  F157  1  0.94874000  0.73021000  0.27340000  1.0
  F  F158  1  0.24040000  0.73869000  0.27011000  1.0
  F  F159  1  0.25584000  0.79803000  0.33384000  1.0
  F  F160  1  0.94572000  0.73559000  0.84400000  1.0
  F  F161  1  0.97396000  0.79845000  0.78519000  1.0
  F  F162  1  0.25584000  0.81982000  0.83348000  1.0
  F  F163  1  0.22904000  0.75761000  0.89321000  1.0
  F  F164  1  0.93942000  0.25074000  0.60697000  1.0
  F  F165  1  0.90646000  0.30914000  0.66689000  1.0
  F  F166  1  0.17400000  0.29599000  0.73085000  1.0
  F  F167  1  0.20758000  0.23614000  0.67216000  1.0
  F  F168  1  0.84446000  0.33381000  0.94721000  1.0
  F  F169  1  0.83346000  0.32676000  0.86483000  1.0
  F  F170  1  0.12530000  0.34967000  0.86385000  1.0
  F  F171  1  0.13856000  0.35873000  0.94493000  1.0
  F  F172  1  0.99110000  0.97412000  0.35416000  1.0
  F  F173  1  0.98342000  0.05178000  0.30973000  1.0
  F  F174  1  0.25512000  0.10369000  0.36037000  1.0
  F  F175  1  0.26364000  0.02647000  0.40666000  1.0
  F  F176  1  0.22600000  0.62351000  0.05601000  1.0
  F  F177  1  0.22962000  0.63759000  0.13735000  1.0
  F  F178  1  0.96146000  0.69243000  0.12365000  1.0
  F  F179  1  0.95716000  0.68036000  0.04204000  1.0
  F  F180  1  0.21096000  0.03748000  0.68228000  1.0
  F  F181  1  0.23184000  0.95823000  0.72349000  1.0
  F  F182  1  0.97736000  0.89128000  0.66264000  1.0
  F  F183  1  0.95610000  0.97001000  0.61988000  1.0
  F  F184  1  0.03182000  0.80658000  0.55255000  1.0
  F  F185  1  0.03502000  0.79991000  0.63451000  1.0
  F  F186  1  0.28092000  0.90005000  0.64734000  1.0
  F  F187  1  0.27794000  0.90810000  0.56486000  1.0
  F  F188  1  0.18006000  0.50480000  0.84561000  1.0
  F  F189  1  0.15862000  0.42440000  0.80310000  1.0
  F  F190  1  0.87060000  0.41788000  0.82031000  1.0
  F  F191  1  0.89032000  0.49702000  0.86391000  1.0
  F  F192  1  0.21362000  0.18418000  0.46590000  1.0
  F  F193  1  0.21688000  0.19760000  0.38467000  1.0
  F  F194  1  0.94346000  0.12817000  0.36451000  1.0
  F  F195  1  0.93888000  0.11319000  0.44545000  1.0
  F  F196  1  0.91516000  0.51399000  0.09700000  1.0
  F  F197  1  0.93108000  0.59131000  0.14408000  1.0
  F  F198  1  0.20138000  0.55607000  0.19161000  1.0
  F  F199  1  0.18600000  0.47783000  0.14633000  1.0
  H  H200  1  0.16618000  0.16380000  0.19922000  1.0
  H  H201  1  0.05370000  0.23053000  0.31808000  1.0
  H  H202  1  0.13614000  0.08676000  0.25543000  1.0
  H  H203  1  0.01184000  0.64445000  0.30609000  1.0
  H  H204  1  0.10418000  0.73364000  0.18873000  1.0
  H  H205  1  0.06016000  0.57733000  0.24835000  1.0
  H  H206  1  0.14484000  0.73056000  0.75273000  1.0
  H  H207  1  0.08700000  0.89195000  0.77079000  1.0
  H  H208  1  0.20754000  0.77891000  0.68335000  1.0
  H  H209  1  0.01078000  0.22186000  0.75515000  1.0
  H  H210  1  0.04952000  0.38926000  0.73569000  1.0
  H  H211  1  0.93478000  0.26266000  0.82124000  1.0
  H  H212  1  0.65292000  0.34014000  0.10379000  1.0
  H  H213  1  0.65864000  0.40281000  0.09673000  1.0
  H  H214  1  0.52056000  0.29086000  0.06066000  1.0
  H  H215  1  0.53978000  0.43749000  0.04142000  1.0
  H  H216  1  0.37240000  0.29248000  0.06742000  1.0
  H  H217  1  0.39178000  0.43977000  0.04809000  1.0
  H  H218  1  0.76428000  0.83472000  0.46313000  1.0
  H  H219  1  0.77354000  0.89694000  0.47342000  1.0
  H  H220  1  0.63046000  0.80379000  0.41093000  1.0
  H  H221  1  0.65946000  0.95072000  0.42977000  1.0
  H  H222  1  0.48250000  0.80451000  0.41852000  1.0
  H  H223  1  0.51148000  0.95214000  0.43723000  1.0
  H  H224  1  0.71004000  0.62535000  0.96896000  1.0
  H  H225  1  0.70616000  0.66560000  0.92632000  1.0
  H  H226  1  0.57886000  0.55628000  0.96766000  1.0
  H  H227  1  0.57748000  0.64914000  0.86627000  1.0
  H  H228  1  0.43130000  0.56309000  0.97287000  1.0
  H  H229  1  0.43016000  0.65643000  0.87108000  1.0
  H  H230  1  0.71396000  0.15128000  0.55465000  1.0
  H  H231  1  0.70080000  0.09214000  0.53535000  1.0
  H  H232  1  0.61126000  0.17494000  0.61858000  1.0
  H  H233  1  0.56920000  0.04006000  0.56397000  1.0
  H  H234  1  0.46288000  0.18392000  0.61337000  1.0
  H  H235  1  0.42102000  0.04872000  0.55799000  1.0
  O  O236  1  0.10898000  0.15253000  0.20377000  1.0
  O  O237  1  0.07090000  0.64432000  0.30139000  1.0
  O  O238  1  0.19428000  0.75214000  0.75776000  1.0
  O  O239  1  0.95994000  0.23729000  0.74788000  1.0
  O  O240  1  0.10471000  0.43041000  0.08915000  1.0
  O  O241  1  0.96434000  0.43001000  0.09319000  1.0
  O  O242  1  0.95522000  0.32979000  0.11703000  1.0
  O  O243  1  0.09602000  0.33224000  0.11454000  1.0
  O  O244  1  0.24238000  0.40523000  0.05820000  1.0
  O  O245  1  0.23192000  0.33061000  0.06738000  1.0
  O  O246  1  0.07308000  0.35621000  0.01119000  1.0
  O  O247  1  0.93320000  0.35712000  0.01273000  1.0
  O  O248  1  0.79856000  0.33132000  0.07804000  1.0
  O  O249  1  0.80592000  0.40641000  0.07141000  1.0
  O  O250  1  0.06318000  0.93375000  0.41382000  1.0
  O  O251  1  0.20442000  0.93945000  0.41190000  1.0
  O  O252  1  0.19040000  0.83868000  0.39007000  1.0
  O  O253  1  0.04980000  0.83367000  0.39202000  1.0
  O  O254  1  0.92020000  0.90941000  0.44661000  1.0
  O  O255  1  0.91178000  0.83442000  0.43837000  1.0
  O  O256  1  0.07590000  0.86314000  0.49445000  1.0
  O  O257  1  0.21682000  0.87038000  0.49389000  1.0
  O  O258  1  0.34536000  0.84196000  0.42993000  1.0
  O  O259  1  0.35862000  0.91710000  0.43589000  1.0
  O  O260  1  0.12266000  0.56186000  0.89442000  1.0
  O  O261  1  0.98300000  0.56585000  0.89299000  1.0
  O  O262  1  0.00574000  0.68185000  0.89910000  1.0
  O  O263  1  0.14606000  0.67837000  0.90107000  1.0
  O  O264  1  0.28604000  0.63854000  0.89956000  1.0
  O  O265  1  0.28538000  0.59101000  0.95067000  1.0
  O  O266  1  0.15140000  0.63109000  0.98466000  1.0
  O  O267  1  0.01174000  0.63579000  0.98314000  1.0
  O  O268  1  0.85464000  0.59981000  0.95404000  1.0
  O  O269  1  0.85012000  0.64852000  0.90367000  1.0
  O  O270  1  0.14778000  0.13660000  0.52319000  1.0
  O  O271  1  0.00680000  0.12711000  0.51818000  1.0
  O  O272  1  0.01122000  0.17416000  0.60257000  1.0
  O  O273  1  0.15254000  0.18273000  0.61064000  1.0
  O  O274  1  0.28708000  0.09103000  0.56500000  1.0
  O  O275  1  0.30562000  0.15474000  0.60060000  1.0
  O  O276  1  0.14600000  0.07132000  0.61589000  1.0
  O  O277  1  0.00574000  0.05774000  0.60727000  1.0
  O  O278  1  0.86006000  0.13538000  0.59646000  1.0
  O  O279  1  0.85744000  0.08790000  0.54498000  1.0
  O  O280  1  0.62348000  0.36270000  0.04516000  1.0
  O  O281  1  0.73816000  0.87690000  0.41374000  1.0
  O  O282  1  0.67098000  0.59664000  0.91253000  1.0
  O  O283  1  0.68404000  0.10082000  0.59702000  1.0
