# generated using pymatgen
data_Cd4H30C70(SO6)5
_symmetry_space_group_name_H-M   'P 1'
_cell_length_a   20.65086835
_cell_length_b   20.65055000
_cell_length_c   32.74220000
_cell_angle_alpha   88.58600000
_cell_angle_beta   88.58602180
_cell_angle_gamma   81.87701829
_symmetry_Int_Tables_number   1
_chemical_formula_structural   Cd4H30C70(SO6)5
_chemical_formula_sum   'Cd12 H90 C210 S15 O90'
_cell_volume   13815.50326267
_cell_formula_units_Z   3
loop_
 _symmetry_equiv_pos_site_id
 _symmetry_equiv_pos_as_xyz
  1  'x, y, z'
loop_
 _atom_site_type_symbol
 _atom_site_label
 _atom_site_symmetry_multiplicity
 _atom_site_fract_x
 _atom_site_fract_y
 _atom_site_fract_z
 _atom_site_occupancy
  C  C0  1  0.06366000  0.06358000  0.60940000  1.0
  C  C1  1  0.92866000  0.10520000  0.72927000  1.0
  C  C2  1  0.99384000  0.07190000  0.85112000  1.0
  C  C3  1  0.13662000  0.10182000  0.74734000  1.0
  C  C4  1  0.09824000  0.92696000  0.74122000  1.0
  C  C5  1  0.13348000  0.15178000  0.31181000  1.0
  C  C6  1  0.11648000  0.29774000  0.18372000  1.0
  C  C7  1  0.25178000  0.20016000  0.07015000  1.0
  C  C8  1  0.12230000  0.10268000  0.16712500  1.0
  C  C9  1  0.30614000  0.13751000  0.20404500  1.0
  C  C10  1  0.33042000  0.37188000  0.27709000  1.0
  C  C11  1  0.19238000  0.39692000  0.40627000  1.0
  C  C12  1  0.30914000  0.26262000  0.51662000  1.0
  C  C13  1  0.37884000  0.40824000  0.42170000  1.0
  C  C14  1  0.35226000  0.21080000  0.38634000  1.0
  C  C15  1  0.43888000  0.46534000  0.98501000  1.0
  C  C16  1  0.45162000  0.60372000  0.85753000  1.0
  C  C17  1  0.48004000  0.48070000  0.74096000  1.0
  C  C18  1  0.40888000  0.40506000  0.85782000  1.0
  C  C19  1  0.59192000  0.41398000  0.86601000  1.0
  C  C20  1  0.72330000  0.77818000  0.94714000  1.0
  C  C21  1  0.64342000  0.78640000  0.09647000  1.0
  C  C22  1  0.78862000  0.60582000  0.16694000  1.0
  C  C23  1  0.83708000  0.78893000  0.07681000  1.0
  C  C24  1  0.78000000  0.61136000  0.04424000  1.0
  C  C25  1  0.73298000  0.80252000  0.64459000  1.0
  C  C26  1  0.67976000  0.85118000  0.49387000  1.0
  C  C27  1  0.79454000  0.65194000  0.42278000  1.0
  C  C28  1  0.68944000  0.66750000  0.54352000  1.0
  C  C29  1  0.86932000  0.74762000  0.52334000  1.0
  C  C30  1  0.19012000  0.13132000  0.76459000  1.0
  C  C31  1  0.21170000  0.11174000  0.80428000  1.0
  C  C32  1  0.21508000  0.18328000  0.74402000  1.0
  C  C33  1  0.25880000  0.21606000  0.76424000  1.0
  C  C34  1  0.25570000  0.14520000  0.82405000  1.0
  C  C35  1  0.27804000  0.19824000  0.80385000  1.0
  C  C36  1  0.31592000  0.24522000  0.82136000  1.0
  C  C37  1  0.33978000  0.24462000  0.86097000  1.0
  C  C38  1  0.32284000  0.29664000  0.79430000  1.0
  C  C39  1  0.35216000  0.34954000  0.80582000  1.0
  C  C40  1  0.37064000  0.29710000  0.87296000  1.0
  C  C41  1  0.37638000  0.35008000  0.84565000  1.0
  C  C42  1  0.15038000  0.87048000  0.74793000  1.0
  C  C43  1  0.20820000  0.86370000  0.72333000  1.0
  C  C44  1  0.14860000  0.83094000  0.78377000  1.0
  C  C45  1  0.20470000  0.78916000  0.79514000  1.0
  C  C46  1  0.26438000  0.82174000  0.73552000  1.0
  C  C47  1  0.26244000  0.78592000  0.77225000  1.0
  C  C48  1  0.31714000  0.74428000  0.79242000  1.0
  C  C49  1  0.38204000  0.73120000  0.77861000  1.0
  C  C50  1  0.29794000  0.71726000  0.82928000  1.0
  C  C51  1  0.34160000  0.67422000  0.85257000  1.0
  C  C52  1  0.42672000  0.68840000  0.80159000  1.0
  C  C53  1  0.40692000  0.65820000  0.83828000  1.0
  C  C54  1  0.65550000  0.37226000  0.86148000  1.0
  C  C55  1  0.71138000  0.40142000  0.85031000  1.0
  C  C56  1  0.65584000  0.30494000  0.85496000  1.0
  C  C57  1  0.71044000  0.26914000  0.83612000  1.0
  C  C58  1  0.76532000  0.36500000  0.83045000  1.0
  C  C59  1  0.76330000  0.29906000  0.82232000  1.0
  C  C60  1  0.80950000  0.25512000  0.79670000  1.0
  C  C61  1  0.86486000  0.27028000  0.77516000  1.0
  C  C62  1  0.79034000  0.19362000  0.79345000  1.0
  C  C63  1  0.82684000  0.14464000  0.77037000  1.0
  C  C64  1  0.90168000  0.22204000  0.75129000  1.0
  C  C65  1  0.88380000  0.15848000  0.74913000  1.0
  C  C66  1  0.36082000  0.08420000  0.19560000  1.0
  C  C67  1  0.36856000  0.02704000  0.22072000  1.0
  C  C68  1  0.39930000  0.08542000  0.15922000  1.0
  C  C69  1  0.44198000  0.02936000  0.14836000  1.0
  C  C70  1  0.41176000  0.97140000  0.20931000  1.0
  C  C71  1  0.44742000  0.97280000  0.17252500  1.0
  C  C72  1  0.49224000  0.91872000  0.15416000  1.0
  C  C73  1  0.50954000  0.85596000  0.17067000  1.0
  C  C74  1  0.51914000  0.93646000  0.11688000  1.0
  C  C75  1  0.56600000  0.89316000  0.09563500  1.0
  C  C76  1  0.55630000  0.81208000  0.15003000  1.0
  C  C77  1  0.58600000  0.83032000  0.11284000  1.0
  C  C78  1  0.88704000  0.83106000  0.08473000  1.0
  C  C79  1  0.91670000  0.86178000  0.05154000  1.0
  C  C80  1  0.90314000  0.84390000  0.12505000  1.0
  C  C81  1  0.94696000  0.88810000  0.13109000  1.0
  C  C82  1  0.96074000  0.90572000  0.05826000  1.0
  C  C83  1  0.97496000  0.91894000  0.09836000  1.0
  C  C84  1  0.01584000  0.96662000  0.11170000  1.0
  C  C85  1  0.04964000  0.00698000  0.08691000  1.0
  C  C86  1  0.01672000  0.97014000  0.15395000  1.0
  C  C87  1  0.05068000  0.01428000  0.17294000  1.0
  C  C88  1  0.08466000  0.05114000  0.10533000  1.0
  C  C89  1  0.08532000  0.05546000  0.14840500  1.0
  C  C90  1  0.06250000  0.35102000  0.17418000  1.0
  C  C91  1  0.99802000  0.34538000  0.18791000  1.0
  C  C92  1  0.07220000  0.39944000  0.14416000  1.0
  C  C93  1  0.01780000  0.43800000  0.12729000  1.0
  C  C94  1  0.94394000  0.38338000  0.16976000  1.0
  C  C95  1  0.95460000  0.42808000  0.13834000  1.0
  C  C96  1  0.90512000  0.46770000  0.11275000  1.0
  C  C97  1  0.83774000  0.46656000  0.11365000  1.0
  C  C98  1  0.93272000  0.50832000  0.08487000  1.0
  C  C99  1  0.89382000  0.55314000  0.05959000  1.0
  C  C100  1  0.79804000  0.51002000  0.08807000  1.0
  C  C101  1  0.82502000  0.55574000  0.06212000  1.0
  C  C102  1  0.41604000  0.45248000  0.44269000  1.0
  C  C103  1  0.39278000  0.47768000  0.48095000  1.0
  C  C104  1  0.47696000  0.46538000  0.42699000  1.0
  C  C105  1  0.51372000  0.50164000  0.45035000  1.0
  C  C106  1  0.42988000  0.51516000  0.50356000  1.0
  C  C107  1  0.49082000  0.52640000  0.48794000  1.0
  C  C108  1  0.53846000  0.56134000  0.50758000  1.0
  C  C109  1  0.53048000  0.59544000  0.54414000  1.0
  C  C110  1  0.59584000  0.55946000  0.48446000  1.0
  C  C111  1  0.64722000  0.59034000  0.49703000  1.0
  C  C112  1  0.58096000  0.62892000  0.55659000  1.0
  C  C113  1  0.63946000  0.62682000  0.53308000  1.0
  C  C114  1  0.40042000  0.15168000  0.39426000  1.0
  C  C115  1  0.45282000  0.13398000  0.36630000  1.0
  C  C116  1  0.39966000  0.11790000  0.43233000  1.0
  C  C117  1  0.45186000  0.06972000  0.44200000  1.0
  C  C118  1  0.50422000  0.08442000  0.37626000  1.0
  C  C119  1  0.50360000  0.05318000  0.41465000  1.0
  C  C120  1  0.55474000  0.00374000  0.43212000  1.0
  C  C121  1  0.61176000  0.97410000  0.41259000  1.0
  C  C122  1  0.54018000  0.98628000  0.47226000  1.0
  C  C123  1  0.58166000  0.93890000  0.49417000  1.0
  C  C124  1  0.65320000  0.92562000  0.43371000  1.0
  C  C125  1  0.63864000  0.90744000  0.47448000  1.0
  C  C126  1  0.92942000  0.70570000  0.50911000  1.0
  C  C127  1  0.96562000  0.72832000  0.47573000  1.0
  C  C128  1  0.94194000  0.63908000  0.52126000  1.0
  C  C129  1  0.98710000  0.59670000  0.49844000  1.0
  C  C130  1  0.01040000  0.68500000  0.45314000  1.0
  C  C131  1  0.01936000  0.61868000  0.46415000  1.0
  C  C132  1  0.05996000  0.56478000  0.44264000  1.0
  C  C133  1  0.09900000  0.56908000  0.40743000  1.0
  C  C134  1  0.05740000  0.50470000  0.46204000  1.0
  C  C135  1  0.09658000  0.44806000  0.44884000  1.0
  C  C136  1  0.13840000  0.51252000  0.39342000  1.0
  C  C137  1  0.13934000  0.45186000  0.41466000  1.0
  C  C138  1  0.11614000  0.13488000  0.35459000  1.0
  C  C139  1  0.07172000  0.08936000  0.36208000  1.0
  C  C140  1  0.14378000  0.16198000  0.38804000  1.0
  C  C141  1  0.12670000  0.14262000  0.42770000  1.0
  C  C142  1  0.05534000  0.07058000  0.40202000  1.0
  C  C143  1  0.08340000  0.09754000  0.43475000  1.0
  C  C144  1  0.07316000  0.08368000  0.47872000  1.0
  C  C145  1  0.03332000  0.04094000  0.49671000  1.0
  C  C146  1  0.10918000  0.11902000  0.50291000  1.0
  C  C147  1  0.10710000  0.11294000  0.54546000  1.0
  C  C148  1  0.03030000  0.03438000  0.53953000  1.0
  C  C149  1  0.06712000  0.07012000  0.56427000  1.0
  C  C150  1  0.41502000  0.45066000  0.02684000  1.0
  C  C151  1  0.35936000  0.41786000  0.03150000  1.0
  C  C152  1  0.44692000  0.46684000  0.06202000  1.0
  C  C153  1  0.42254000  0.44968000  0.10052000  1.0
  C  C154  1  0.33602000  0.40084000  0.07024000  1.0
  C  C155  1  0.36824000  0.41690000  0.10468000  1.0
  C  C156  1  0.35192000  0.40248000  0.14777000  1.0
  C  C157  1  0.30154000  0.36922000  0.16287000  1.0
  C  C158  1  0.39432000  0.42544000  0.17435000  1.0
  C  C159  1  0.38798000  0.41640000  0.21658000  1.0
  C  C160  1  0.29456000  0.35932000  0.20525000  1.0
  C  C161  1  0.33752000  0.38284000  0.23246000  1.0
  C  C162  1  0.72772000  0.81300000  0.68907000  1.0
  C  C163  1  0.74814000  0.86860000  0.70633000  1.0
  C  C164  1  0.70392000  0.76560000  0.71495000  1.0
  C  C165  1  0.70176000  0.77430000  0.75701000  1.0
  C  C166  1  0.74614000  0.87624000  0.74891000  1.0
  C  C167  1  0.72306000  0.82824000  0.77402000  1.0
  C  C168  1  0.72080000  0.82458000  0.81905000  1.0
  C  C169  1  0.74206000  0.86806000  0.84602000  1.0
  C  C170  1  0.69766000  0.76824000  0.83382000  1.0
  C  C171  1  0.69618000  0.75266000  0.87554000  1.0
  C  C172  1  0.74086000  0.85334000  0.88805000  1.0
  C  C173  1  0.71864000  0.79538000  0.90314000  1.0
  C  C174  1  0.01590000  0.09730000  0.88906000  1.0
  C  C175  1  0.00468000  0.16556000  0.89521000  1.0
  C  C176  1  0.06390000  0.05780000  0.91190000  1.0
  C  C177  1  0.10316000  0.08794000  0.93727000  1.0
  C  C178  1  0.04462000  0.19490000  0.92100000  1.0
  C  C179  1  0.09554000  0.15552000  0.94063000  1.0
  C  C180  1  0.14600000  0.17680000  0.96600000  1.0
  C  C181  1  0.15068000  0.24042000  0.97790000  1.0
  C  C182  1  0.18870000  0.12418000  0.98110000  1.0
  C  C183  1  0.23196000  0.13218000  0.01183000  1.0
  C  C184  1  0.19448000  0.24954000  0.00857000  1.0
  C  C185  1  0.23204000  0.19506000  0.02764000  1.0
  C  C186  1  0.46700000  0.44902000  0.70298000  1.0
  C  C187  1  0.51156000  0.39528000  0.68911000  1.0
  C  C188  1  0.40422000  0.46180000  0.68621000  1.0
  C  C189  1  0.38612000  0.41840000  0.65827000  1.0
  C  C190  1  0.49210000  0.35178000  0.66128000  1.0
  C  C191  1  0.42822000  0.36290000  0.64713000  1.0
  C  C192  1  0.39714000  0.32166000  0.61992000  1.0
  C  C193  1  0.42652000  0.26498000  0.60076000  1.0
  C  C194  1  0.33330667  0.34843333  0.61129000  1.0
  C  C195  1  0.29890000  0.32336000  0.58085000  1.0
  C  C196  1  0.39274000  0.23918000  0.56989000  1.0
  C  C197  1  0.33032000  0.27022000  0.55834000  1.0
  C  C198  1  0.81074000  0.60238000  0.39175000  1.0
  C  C199  1  0.76550000  0.55970000  0.38374000  1.0
  C  C200  1  0.86894000  0.59966000  0.36841000  1.0
  C  C201  1  0.87740000  0.55916000  0.33467000  1.0
  C  C202  1  0.77438000  0.51946000  0.34993000  1.0
  C  C203  1  0.82882000  0.52248000  0.32402000  1.0
  C  C204  1  0.82948000  0.51130000  0.27980000  1.0
  C  C205  1  0.77502000  0.49764000  0.25868000  1.0
  C  C206  1  0.87834000  0.54066000  0.25945000  1.0
  C  C207  1  0.86880000  0.56602000  0.21990000  1.0
  C  C208  1  0.76478000  0.52344000  0.21924000  1.0
  C  C209  1  0.80932000  0.56154000  0.20105000  1.0
  Cd  Cd210  1  0.05806000  0.05696000  0.68453000  1.0
  Cd  Cd211  1  0.01402000  0.03506000  0.78223000  1.0
  Cd  Cd212  1  0.16248000  0.17235000  0.23952000  1.0
  Cd  Cd213  1  0.22388000  0.20104000  0.14270000  1.0
  Cd  Cd214  1  0.32226000  0.35254000  0.35139000  1.0
  Cd  Cd215  1  0.28992000  0.29736000  0.44626000  1.0
  Cd  Cd216  1  0.47618000  0.48034000  0.91377000  1.0
  Cd  Cd217  1  0.48648000  0.49088000  0.81441000  1.0
  Cd  Cd218  1  0.74052000  0.74708000  0.01921000  1.0
  Cd  Cd219  1  0.75422000  0.68228000  0.11201000  1.0
  Cd  Cd220  1  0.74326000  0.77984000  0.57142000  1.0
  Cd  Cd221  1  0.76580000  0.72092000  0.48076000  1.0
  H  H222  1  0.19284000  0.07186000  0.82059000  1.0
  H  H223  1  0.19794000  0.20046000  0.71414000  1.0
  H  H224  1  0.26964000  0.13136000  0.85502000  1.0
  H  H225  1  0.33422000  0.20500000  0.88241000  1.0
  H  H226  1  0.35606000  0.38924000  0.78405000  1.0
  H  H227  1  0.38912000  0.29676000  0.90365000  1.0
  H  H228  1  0.21138000  0.89386000  0.69603000  1.0
  H  H229  1  0.10572000  0.83512000  0.80375000  1.0
  H  H230  1  0.30896000  0.81938000  0.71725000  1.0
  H  H231  1  0.39792000  0.75252000  0.75024000  1.0
  H  H232  1  0.32428000  0.65186000  0.88023000  1.0
  H  H233  1  0.47634000  0.67706000  0.78976000  1.0
  H  H234  1  0.71090000  0.45354000  0.85366000  1.0
  H  H235  1  0.61254000  0.28206000  0.86148000  1.0
  H  H236  1  0.80610000  0.38896000  0.81983000  1.0
  H  H237  1  0.87978000  0.31826000  0.77678000  1.0
  H  H238  1  0.81162000  0.09664000  0.76939000  1.0
  H  H239  1  0.94548000  0.23388000  0.73570000  1.0
  H  H240  1  0.33950000  0.02456000  0.24855000  1.0
  H  H241  1  0.39402000  0.12770000  0.13874000  1.0
  H  H242  1  0.41578000  0.92772000  0.22852000  1.0
  H  H243  1  0.48870000  0.84128000  0.19947000  1.0
  H  H244  1  0.58858000  0.90916000  0.06768000  1.0
  H  H245  1  0.57072000  0.76416000  0.16383000  1.0
  H  H246  1  0.90526000  0.85242000  0.02032000  1.0
  H  H247  1  0.88060000  0.82190000  0.15111000  1.0
  H  H248  1  0.98210000  0.92962000  0.03255000  1.0
  H  H249  1  0.04886000  0.00494000  0.05397000  1.0
  H  H250  1  0.05018000  0.01622000  0.20596000  1.0
  H  H251  1  0.11068000  0.08230000  0.08578000  1.0
  H  H252  1  0.98920000  0.30816000  0.21042000  1.0
  H  H253  1  0.12082000  0.40468000  0.13262000  1.0
  H  H254  1  0.89490000  0.37612000  0.17923000  1.0
  H  H255  1  0.81570000  0.43406000  0.13444000  1.0
  H  H256  1  0.91640000  0.58716000  0.04018000  1.0
  H  H257  1  0.74556000  0.51060000  0.09043000  1.0
  H  H258  1  0.34606000  0.46782000  0.49354000  1.0
  H  H259  1  0.49652000  0.44544000  0.39823000  1.0
  H  H260  1  0.41176000  0.53358000  0.53293000  1.0
  H  H261  1  0.48570000  0.59774000  0.56222000  1.0
  H  H262  1  0.69114000  0.58802000  0.47817000  1.0
  H  H263  1  0.57408000  0.65706000  0.58422000  1.0
  H  H264  1  0.45478000  0.15966000  0.33716000  1.0
  H  H265  1  0.36122000  0.13092000  0.45492000  1.0
  H  H266  1  0.54446000  0.07236000  0.35477000  1.0
  H  H267  1  0.62358000  0.98694000  0.38134000  1.0
  H  H268  1  0.56844000  0.92488000  0.52501000  1.0
  H  H269  1  0.69650000  0.90162000  0.41804000  1.0
  H  H270  1  0.95616000  0.77902000  0.46556000  1.0
  H  H271  1  0.91388000  0.61962000  0.54585000  1.0
  H  H272  1  0.03556000  0.70288000  0.42675000  1.0
  H  H273  1  0.10082000  0.61548000  0.39171000  1.0
  H  H274  1  0.09604000  0.40280000  0.46617000  1.0
  H  H275  1  0.17084000  0.51714000  0.36735000  1.0
  H  H276  1  0.04986000  0.06776000  0.33696000  1.0
  H  H277  1  0.17776000  0.19700000  0.38342000  1.0
  H  H278  1  0.02158000  0.03548000  0.40701000  1.0
  H  H279  1  0.00496000  0.01314000  0.47822000  1.0
  H  H280  1  0.13584000  0.14124000  0.56343000  1.0
  H  H281  1  0.99932000  0.00132000  0.55329000  1.0
  H  H282  1  0.33402000  0.40464000  0.00505000  1.0
  H  H283  1  0.48962000  0.49176000  0.05959000  1.0
  H  H284  1  0.29374000  0.37540000  0.07299000  1.0
  H  H285  1  0.26826000  0.35100000  0.14248000  1.0
  H  H286  1  0.42198000  0.43472000  0.23652000  1.0
  H  H287  1  0.25564000  0.33334000  0.21674000  1.0
  H  H288  1  0.76676000  0.90538000  0.68700000  1.0
  H  H289  1  0.68820000  0.72222000  0.70279000  1.0
  H  H290  1  0.76318000  0.91834000  0.76179000  1.0
  H  H291  1  0.76056000  0.91186000  0.83495000  1.0
  H  H292  1  0.67980000  0.70744000  0.88603000  1.0
  H  H293  1  0.75858000  0.88670000  0.90870000  1.0
  H  H294  1  0.96846000  0.19672000  0.87759000  1.0
  H  H295  1  0.07488000  0.00568000  0.90716000  1.0
  H  H296  1  0.03752000  0.24750000  0.92391000  1.0
  H  H297  1  0.11828000  0.28186000  0.96590000  1.0
  H  H298  1  0.25924000  0.08928000  0.02614000  1.0
  H  H299  1  0.19368000  0.29824000  0.02027000  1.0
  H  H300  1  0.55984000  0.38428000  0.70188000  1.0
  H  H301  1  0.36878000  0.50216000  0.69649000  1.0
  H  H302  1  0.52572000  0.30932000  0.65223000  1.0
  H  H303  1  0.47610000  0.24352000  0.60740000  1.0
  H  H304  1  0.25216000  0.34962000  0.57177000  1.0
  H  H305  1  0.41780000  0.19886000  0.55248000  1.0
  H  H306  1  0.72154000  0.56020000  0.40237000  1.0
  H  H307  1  0.90360000  0.63316000  0.37373000  1.0
  H  H308  1  0.73598000  0.49160000  0.34229000  1.0
  H  H309  1  0.73674000  0.47480000  0.27385000  1.0
  H  H310  1  0.90254000  0.59684000  0.20672000  1.0
  H  H311  1  0.71932000  0.51880000  0.20451000  1.0
  O  O312  1  0.12858000  0.10164000  0.70787000  1.0
  O  O313  1  0.09620000  0.07798000  0.77315000  1.0
  O  O314  1  0.05966000  0.94488000  0.77260000  1.0
  O  O315  1  0.10028000  0.96454000  0.70785000  1.0
  O  O316  1  0.09912000  0.09394000  0.63303000  1.0
  O  O317  1  0.02480000  0.02814000  0.62946000  1.0
  O  O318  1  0.97796000  0.12024000  0.70664000  1.0
  O  O319  1  0.93498000  0.04728000  0.74661000  1.0
  O  O320  1  0.98596000  0.11098000  0.81906000  1.0
  O  O321  1  0.00438000  0.00928000  0.84260000  1.0
  O  O322  1  0.11582000  0.11306000  0.20639000  1.0
  O  O323  1  0.16100000  0.13306000  0.14344000  1.0
  O  O324  1  0.30000000  0.19000000  0.18055000  1.0
  O  O325  1  0.25558000  0.12332000  0.22604000  1.0
  O  O326  1  0.10742000  0.12712000  0.28089000  1.0
  O  O327  1  0.17672000  0.19030000  0.30101000  1.0
  O  O328  1  0.11484000  0.26256000  0.21791000  1.0
  O  O329  1  0.15772000  0.28020000  0.15367000  1.0
  O  O330  1  0.26022000  0.14790000  0.09378000  1.0
  O  O331  1  0.23632000  0.25444000  0.09020000  1.0
  O  O332  1  0.37878000  0.40666000  0.38174000  1.0
  O  O333  1  0.34674000  0.37024000  0.44467000  1.0
  O  O334  1  0.29888000  0.22048000  0.40885000  1.0
  O  O335  1  0.37130000  0.26008000  0.36543000  1.0
  O  O336  1  0.36640000  0.39640000  0.30341000  1.0
  O  O337  1  0.28868000  0.33632000  0.29395000  1.0
  O  O338  1  0.23372000  0.40168000  0.37513000  1.0
  O  O339  1  0.20356000  0.35100000  0.43461000  1.0
  O  O340  1  0.25126000  0.28858000  0.50404000  1.0
  O  O341  1  0.35300000  0.25096000  0.48734000  1.0
  O  O342  1  0.44828000  0.39930000  0.88865000  1.0
  O  O343  1  0.40388000  0.45782000  0.83485000  1.0
  O  O344  1  0.55420000  0.41694000  0.83426000  1.0
  O  O345  1  0.57450000  0.44840000  0.89900000  1.0
  O  O346  1  0.40824000  0.45040000  0.95296000  1.0
  O  O347  1  0.49230000  0.49132000  0.97607000  1.0
  O  O348  1  0.43002000  0.56872000  0.88783000  1.0
  O  O349  1  0.50180000  0.57732000  0.83573000  1.0
  O  O350  1  0.53420000  0.46376000  0.76078000  1.0
  O  O351  1  0.43238000  0.51112000  0.76319000  1.0
  O  O352  1  0.80914000  0.79500000  0.04116000  1.0
  O  O353  1  0.82090000  0.74800000  0.10556000  1.0
  O  O354  1  0.72762000  0.63186000  0.06523000  1.0
  O  O355  1  0.80230000  0.65710000  0.02228000  1.0
  O  O356  1  0.75374000  0.81114000  0.97226000  1.0
  O  O357  1  0.70110000  0.72720000  0.96413000  1.0
  O  O358  1  0.65788000  0.78426000  0.05664000  1.0
  O  O359  1  0.67995000  0.75159000  0.12356000  1.0
  O  O360  1  0.72758000  0.63212000  0.16252000  1.0
  O  O361  1  0.83004000  0.62614000  0.14048000  1.0
  O  O362  1  0.67202000  0.72392000  0.56046000  1.0
  O  O363  1  0.74724000  0.65684000  0.52609000  1.0
  O  O364  1  0.83340000  0.77750000  0.49472000  1.0
  O  O365  1  0.83844000  0.73326000  0.55719000  1.0
  O  O366  1  0.72048000  0.74838000  0.62870000  1.0
  O  O367  1  0.75168000  0.84482000  0.61771000  1.0
  O  O368  1  0.69874000  0.85390000  0.53214000  1.0
  O  O369  1  0.69716000  0.79964000  0.47113000  1.0
  O  O370  1  0.83880000  0.67292000  0.44480000  1.0
  O  O371  1  0.73406000  0.67622000  0.43200000  1.0
  O  O372  1  0.33494000  0.27864000  0.71270000  1.0
  O  O373  1  0.23162000  0.34230000  0.73881000  1.0
  O  O374  1  0.20320000  0.78164000  0.87795000  1.0
  O  O375  1  0.17584000  0.68566000  0.84114000  1.0
  O  O376  1  0.72558000  0.13960000  0.85543000  1.0
  O  O377  1  0.66270000  0.17616000  0.79333000  1.0
  O  O378  1  0.45068000  0.02454000  0.06565000  1.0
  O  O379  1  0.54372000  0.06042000  0.10136000  1.0
  O  O380  1  0.91286000  0.94938000  0.20231000  1.0
  O  O381  1  0.00986000  0.86320000  0.20262000  1.0
  O  O382  1  0.04384000  0.55762000  0.10147000  1.0
  O  O383  1  0.05208000  0.47070000  0.04977000  1.0
  O  O384  1  0.64194000  0.45870000  0.43526000  1.0
  O  O385  1  0.59396000  0.56324000  0.40168000  1.0
  O  O386  1  0.47052000  0.07212000  0.52363000  1.0
  O  O387  1  0.41502000  0.98244000  0.49810000  1.0
  O  O388  1  0.04092000  0.49252000  0.54414000  1.0
  O  O389  1  0.94698000  0.47730000  0.50120000  1.0
  O  O390  1  0.22704000  0.15096000  0.47825000  1.0
  O  O391  1  0.13300000  0.24052000  0.48020000  1.0
  O  O392  1  0.52190000  0.42924000  0.15399000  1.0
  O  O393  1  0.44866000  0.53538000  0.15717000  1.0
  O  O394  1  0.60596000  0.71494000  0.79346000  1.0
  O  O395  1  0.71860000  0.65392000  0.79344000  1.0
  O  O396  1  0.15250000  0.00502000  0.99785000  1.0
  O  O397  1  0.22312000  0.01584000  0.93624000  1.0
  O  O398  1  0.25496000  0.42012000  0.66620000  1.0
  O  O399  1  0.29622000  0.47938000  0.60630000  1.0
  O  O400  1  0.93852000  0.64044000  0.28560000  1.0
  O  O401  1  0.99452000  0.52688000  0.29696000  1.0
  S  S402  1  0.28640000  0.28824000  0.74772000  1.0
  S  S403  1  0.21500000  0.74172000  0.84005000  1.0
  S  S404  1  0.71728000  0.18822000  0.82039000  1.0
  S  S405  1  0.49036000  0.01790000  0.10375000  1.0
  S  S406  1  0.96974000  0.91570000  0.17782000  1.0
  S  S407  1  0.01796000  0.49726000  0.08816000  1.0
  S  S408  1  0.59214000  0.51894000  0.43866000  1.0
  S  S409  1  0.46472000  0.02758000  0.48872000  1.0
  S  S410  1  0.00562000  0.51204000  0.50520000  1.0
  S  S411  1  0.15454000  0.16898000  0.47347000  1.0
  S  S412  1  0.45364000  0.46386000  0.14809000  1.0
  S  S413  1  0.67774000  0.72014000  0.79426000  1.0
  S  S414  1  0.17052000  0.04976000  0.96387000  1.0
  S  S415  1  0.31016000  0.42240000  0.63572000  1.0
  S  S416  1  0.92990000  0.57014000  0.29360000  1.0
