# generated using pymatgen
data_Zn6H12C50S15O22
_symmetry_space_group_name_H-M   'P 1'
_cell_length_a   27.73570000
_cell_length_b   32.87760909
_cell_length_c   32.87910000
_cell_angle_alpha   60.00150000
_cell_angle_beta   90.00000000
_cell_angle_gamma   90.00000000
_symmetry_Int_Tables_number   1
_chemical_formula_structural   Zn6H12C50S15O22
_chemical_formula_sum   'Zn18 H36 C150 S45 O66'
_cell_volume   25965.48718161
_cell_formula_units_Z   3
loop_
 _symmetry_equiv_pos_site_id
 _symmetry_equiv_pos_as_xyz
  1  'x, y, z'
loop_
 _atom_site_type_symbol
 _atom_site_label
 _atom_site_symmetry_multiplicity
 _atom_site_fract_x
 _atom_site_fract_y
 _atom_site_fract_z
 _atom_site_occupancy
  Zn  Zn0  1  0.00995000  0.68824000  0.12598000  1.0
  Zn  Zn1  1  0.95447000  0.60244000  0.15108000  1.0
  Zn  Zn2  1  0.05126000  0.61701000  0.10901000  1.0
  Zn  Zn3  1  0.68378000  0.81570000  0.35159000  1.0
  Zn  Zn4  1  0.61439000  0.74753000  0.42263000  1.0
  Zn  Zn5  1  0.71144000  0.71625000  0.41069000  1.0
  Zn  Zn6  1  0.32179000  0.16083000  0.20489000  1.0
  Zn  Zn7  1  0.27669000  0.18373000  0.27228000  1.0
  Zn  Zn8  1  0.37798000  0.14783000  0.28454000  1.0
  Zn  Zn9  1  0.07219000  0.37225000  0.84449000  1.0
  Zn  Zn10  1  0.98942000  0.43875000  0.82140000  1.0
  Zn  Zn11  1  0.07356000  0.44545000  0.86855000  1.0
  Zn  Zn12  1  0.74633000  0.19971000  0.62922000  1.0
  Zn  Zn13  1  0.65622000  0.25456000  0.57983000  1.0
  Zn  Zn14  1  0.74813000  0.30326000  0.57871000  1.0
  Zn  Zn15  1  0.42296000  0.82273000  0.82899000  1.0
  Zn  Zn16  1  0.34080000  0.83365000  0.76602000  1.0
  Zn  Zn17  1  0.43571000  0.87747000  0.72550000  1.0
  H  H18  1  0.02766000  0.61127000  0.17927000  1.0
  H  H19  1  0.69004000  0.77111000  0.43027000  1.0
  H  H20  1  0.34444000  0.21627000  0.22475000  1.0
  H  H21  1  0.06911000  0.45308000  0.79498000  1.0
  H  H22  1  0.73103000  0.25264000  0.55194000  1.0
  H  H23  1  0.41497000  0.80089000  0.77268000  1.0
  H  H24  1  0.88445000  0.55253000  0.06073000  1.0
  H  H25  1  0.89670000  0.46879000  0.92434000  1.0
  H  H26  1  0.56075000  0.38399000  0.53184000  1.0
  H  H27  1  0.54316000  0.60657000  0.43874000  1.0
  H  H28  1  0.22070000  0.07612000  0.41656000  1.0
  H  H29  1  0.24963000  0.93465000  0.63850000  1.0
  H  H30  1  0.87793000  0.28184000  0.46038000  1.0
  H  H31  1  0.96073000  0.44759000  0.26680000  1.0
  H  H32  1  0.55204000  0.72868000  0.74885000  1.0
  H  H33  1  0.61176000  0.70222000  0.57686000  1.0
  H  H34  1  0.26973000  0.30620000  0.30330000  1.0
  H  H35  1  0.16715000  0.49733000  0.26454000  1.0
  H  H36  1  0.86011000  0.68220000  0.48054000  1.0
  H  H37  1  0.98202000  0.54989000  0.66488000  1.0
  H  H38  1  0.59104000  0.29715000  0.43986000  1.0
  H  H39  1  0.46748000  0.25612000  0.30145000  1.0
  H  H40  1  0.35516000  0.64040000  0.88124000  1.0
  H  H41  1  0.22513000  0.48054000  0.88483000  1.0
  H  H42  1  0.24654000  0.89250000  0.84104000  1.0
  H  H43  1  0.07860000  0.80736000  0.99105000  1.0
  H  H44  1  0.74946000  0.83862000  0.21774000  1.0
  H  H45  1  0.88021000  0.78374000  0.09577000  1.0
  H  H46  1  0.48123000  0.82240000  0.33229000  1.0
  H  H47  1  0.34390000  0.00130000  0.25946000  1.0
  H  H48  1  0.13610000  0.22010000  0.21096000  1.0
  H  H49  1  0.03792000  0.35166000  0.02090000  1.0
  H  H50  1  0.86674000  0.18472000  0.73137000  1.0
  H  H51  1  0.99549000  0.25608000  0.84286000  1.0
  H  H52  1  0.67598000  0.09091000  0.75863000  1.0
  H  H53  1  0.54289000  0.91250000  0.84545000  1.0
  C  C54  1  0.90892000  0.68651000  0.13861000  1.0
  C  C55  1  0.94387000  0.54320000  0.24567000  1.0
  C  C56  1  0.96977000  0.60087000  0.06567000  1.0
  C  C57  1  0.11261000  0.54963000  0.17787000  1.0
  C  C58  1  0.08764000  0.71007000  0.06332000  1.0
  C  C59  1  0.58272000  0.83478000  0.34502000  1.0
  C  C60  1  0.60520000  0.78266000  0.48330000  1.0
  C  C61  1  0.63057000  0.65383000  0.44467000  1.0
  C  C62  1  0.75780000  0.69141000  0.49240000  1.0
  C  C63  1  0.72412000  0.76446000  0.31072000  1.0
  C  C64  1  0.22067000  0.17506000  0.20346000  1.0
  C  C65  1  0.25741000  0.27735000  0.23353000  1.0
  C  C66  1  0.30797000  0.10663000  0.35906000  1.0
  C  C67  1  0.45789000  0.15915000  0.32434000  1.0
  C  C68  1  0.38610000  0.08635000  0.24870000  1.0
  C  C69  1  0.97925000  0.35016000  0.82494000  1.0
  C  C70  1  0.93125000  0.50524000  0.75399000  1.0
  C  C71  1  0.98801000  0.48441000  0.87438000  1.0
  C  C72  1  0.14393000  0.51024000  0.82198000  1.0
  C  C73  1  0.07479000  0.34990000  0.94004000  1.0
  C  C74  1  0.65176000  0.16578000  0.66584000  1.0
  C  C75  1  0.63453000  0.21888000  0.52069000  1.0
  C  C76  1  0.65591000  0.34611000  0.56978000  1.0
  C  C77  1  0.82294000  0.30848000  0.51849000  1.0
  C  C78  1  0.79628000  0.24991000  0.66618000  1.0
  C  C79  1  0.32592000  0.83163000  0.85196000  1.0
  C  C80  1  0.33333333  0.73662000  0.81200000  1.0
  C  C81  1  0.34889000  0.90768000  0.67115000  1.0
  C  C82  1  0.51145000  0.81870000  0.72605000  1.0
  C  C83  1  0.46898000  0.91278000  0.78368000  1.0
  C  C84  1  0.95199000  0.59133000  0.02907000  1.0
  C  C85  1  0.90986000  0.56613000  0.03186000  1.0
  C  C86  1  0.96379000  0.50946000  0.89518000  1.0
  C  C87  1  0.91970000  0.49745000  0.91964000  1.0
  C  C88  1  0.91286000  0.52361000  0.94213000  1.0
  C  C89  1  0.90829000  0.55609000  0.99533000  1.0
  C  C90  1  0.94903000  0.55467000  0.93538000  1.0
  C  C91  1  0.94657000  0.57275000  0.96520000  1.0
  C  C92  1  0.63084000  0.38896000  0.56125000  1.0
  C  C93  1  0.58483000  0.40408000  0.54103000  1.0
  C  C94  1  0.61479000  0.60473000  0.46930000  1.0
  C  C95  1  0.57114000  0.58623000  0.46365000  1.0
  C  C96  1  0.57127000  0.53724000  0.49149000  1.0
  C  C97  1  0.57743000  0.45097000  0.52866000  1.0
  C  C98  1  0.61183000  0.51897000  0.51805000  1.0
  C  C99  1  0.61512000  0.47100000  0.53895000  1.0
  C  C100  1  0.29975000  0.07271000  0.40879000  1.0
  C  C101  1  0.25526000  0.06167000  0.43263000  1.0
  C  C102  1  0.32807000  0.93746000  0.62448000  1.0
  C  C103  1  0.27889000  0.94734000  0.61330000  1.0
  C  C104  1  0.27329000  0.97666000  0.56499000  1.0
  C  C105  1  0.26220000  0.03006000  0.48028000  1.0
  C  C106  1  0.31530000  0.98822000  0.54012000  1.0
  C  C107  1  0.30908000  0.01770000  0.49283000  1.0
  C  C108  1  0.85409000  0.33566000  0.47766000  1.0
  C  C109  1  0.87848000  0.31811000  0.45216000  1.0
  C  C110  1  0.93688000  0.49799000  0.28874000  1.0
  C  C111  1  0.94620000  0.45360000  0.29393000  1.0
  C  C112  1  0.93211000  0.41822000  0.33831000  1.0
  C  C113  1  0.90052000  0.35460000  0.41270000  1.0
  C  C114  1  0.91253000  0.43377000  0.36618000  1.0
  C  C115  1  0.89449000  0.39807000  0.40780000  1.0
  C  C116  1  0.54189000  0.80441000  0.69887000  1.0
  C  C117  1  0.55784000  0.75843000  0.71404000  1.0
  C  C118  1  0.60127000  0.77858000  0.52970000  1.0
  C  C119  1  0.60554000  0.73655000  0.57290000  1.0
  C  C120  1  0.59867000  0.74481000  0.61007000  1.0
  C  C121  1  0.57715000  0.75526000  0.67659000  1.0
  C  C122  1  0.58929000  0.79050000  0.59710000  1.0
  C  C123  1  0.57703000  0.79633000  0.63451000  1.0
  C  C124  1  0.24354000  0.32026000  0.23384000  1.0
  C  C125  1  0.25095000  0.32930000  0.27091000  1.0
  C  C126  1  0.14105000  0.50628000  0.19690000  1.0
  C  C127  1  0.16634000  0.48478000  0.23973000  1.0
  C  C128  1  0.18963000  0.44439000  0.24622000  1.0
  C  C129  1  0.22955000  0.37173000  0.26068000  1.0
  C  C130  1  0.18360000  0.43501000  0.21050000  1.0
  C  C131  1  0.20631000  0.39442000  0.21846000  1.0
  C  C132  1  0.79778000  0.67362000  0.52616000  1.0
  C  C133  1  0.84618000  0.67011000  0.51553000  1.0
  C  C134  1  0.91721000  0.54302000  0.70712000  1.0
  C  C135  1  0.94577000  0.56134000  0.66637000  1.0
  C  C136  1  0.91980000  0.59427000  0.62747000  1.0
  C  C137  1  0.87310000  0.64559000  0.55660000  1.0
  C  C138  1  0.87375000  0.60175000  0.63695000  1.0
  C  C139  1  0.84755000  0.63065000  0.59716000  1.0
  C  C140  1  0.61268000  0.22236000  0.47835000  1.0
  C  C141  1  0.59209000  0.26340000  0.44155000  1.0
  C  C142  1  0.49115000  0.18204000  0.34141000  1.0
  C  C143  1  0.49108000  0.22993000  0.32776000  1.0
  C  C144  1  0.52301000  0.23847000  0.35536000  1.0
  C  C145  1  0.57035000  0.25412000  0.40894000  1.0
  C  C146  1  0.54696000  0.19977000  0.38878000  1.0
  C  C147  1  0.57356000  0.20853000  0.41907000  1.0
  C  C148  1  0.31668000  0.69203000  0.81704000  1.0
  C  C149  1  0.33074000  0.64722000  0.85281000  1.0
  C  C150  1  0.18892000  0.53441000  0.82030000  1.0
  C  C151  1  0.22504000  0.51584000  0.85489000  1.0
  C  C152  1  0.25767000  0.55062000  0.84861000  1.0
  C  C153  1  0.30681000  0.61259000  0.84818000  1.0
  C  C154  1  0.24816000  0.59407000  0.81115000  1.0
  C  C155  1  0.27579000  0.62899000  0.81099000  1.0
  C  C156  1  0.29033000  0.82948000  0.88580000  1.0
  C  C157  1  0.25187000  0.86112000  0.87478000  1.0
  C  C158  1  0.12321000  0.74378000  0.03121000  1.0
  C  C159  1  0.11360000  0.79065000  0.99727000  1.0
  C  C160  1  0.15416000  0.81122000  0.96957000  1.0
  C  C161  1  0.21936000  0.84453000  0.91188000  1.0
  C  C162  1  0.19381000  0.78275000  0.98165000  1.0
  C  C163  1  0.23079000  0.80178000  0.94948000  1.0
  C  C164  1  0.74108000  0.76305000  0.26912000  1.0
  C  C165  1  0.75241000  0.80255000  0.22560000  1.0
  C  C166  1  0.86711000  0.70881000  0.14680000  1.0
  C  C167  1  0.85881000  0.75745000  0.12444000  1.0
  C  C168  1  0.82283000  0.76766000  0.14753000  1.0
  C  C169  1  0.77283000  0.78892000  0.19557000  1.0
  C  C170  1  0.80423000  0.72947000  0.18638000  1.0
  C  C171  1  0.77659000  0.74145000  0.21376000  1.0
  C  C172  1  0.54345000  0.86860000  0.32240000  1.0
  C  C173  1  0.49509000  0.85755000  0.31942000  1.0
  C  C174  1  0.40823000  0.04341000  0.25420000  1.0
  C  C175  1  0.38281000  0.00391000  0.25989000  1.0
  C  C176  1  0.41442000  0.96699000  0.27060000  1.0
  C  C177  1  0.46703000  0.89812000  0.29902000  1.0
  C  C178  1  0.46194000  0.97709000  0.27214000  1.0
  C  C179  1  0.49155000  0.93849000  0.28757000  1.0
  C  C180  1  0.17493000  0.18577000  0.17772000  1.0
  C  C181  1  0.13703000  0.21053000  0.18386000  1.0
  C  C182  1  0.07595000  0.31451000  0.99002000  1.0
  C  C183  1  0.05644000  0.32039000  0.02613000  1.0
  C  C184  1  0.06839000  0.28260000  0.06984000  1.0
  C  C185  1  0.10589000  0.22910000  0.14558000  1.0
  C  C186  1  0.09622000  0.24888000  0.06854000  1.0
  C  C187  1  0.11770000  0.21890000  0.11116000  1.0
  C  C188  1  0.82430000  0.25018000  0.70383000  1.0
  C  C189  1  0.85766000  0.21583000  0.73316000  1.0
  C  C190  1  0.94891000  0.31892000  0.81604000  1.0
  C  C191  1  0.96246000  0.27382000  0.82544000  1.0
  C  C192  1  0.92955000  0.25653000  0.80594000  1.0
  C  C193  1  0.88039000  0.22936000  0.76231000  1.0
  C  C194  1  0.89255000  0.28641000  0.78195000  1.0
  C  C195  1  0.86524000  0.27133000  0.75699000  1.0
  C  C196  1  0.62247000  0.12771000  0.70188000  1.0
  C  C197  1  0.63958000  0.09273000  0.74588000  1.0
  C  C198  1  0.49315000  0.95122000  0.78585000  1.0
  C  C199  1  0.52988000  0.94595000  0.81749000  1.0
  C  C200  1  0.55229000  0.98894000  0.80341000  1.0
  C  C201  1  0.60473000  0.05829000  0.76907000  1.0
  C  C202  1  0.53352000  0.02615000  0.76368000  1.0
  C  C203  1  0.56281000  0.06526000  0.74462000  1.0
  S  S204  1  0.98599000  0.59984000  0.98215000  1.0
  S  S205  1  0.87571000  0.51729000  0.98627000  1.0
  S  S206  1  0.99273000  0.55124000  0.90244000  1.0
  S  S207  1  0.66068000  0.43348000  0.56278000  1.0
  S  S208  1  0.53748000  0.49328000  0.49254000  1.0
  S  S209  1  0.65162000  0.56087000  0.50787000  1.0
  S  S210  1  0.34588000  0.04391000  0.44677000  1.0
  S  S211  1  0.22559000  0.00378000  0.52845000  1.0
  S  S212  1  0.36279000  0.96448000  0.57510000  1.0
  S  S213  1  0.86040000  0.39524000  0.45100000  1.0
  S  S214  1  0.92834000  0.35860000  0.36460000  1.0
  S  S215  1  0.91107000  0.49242000  0.33844000  1.0
  S  S216  1  0.55197000  0.83951000  0.64000000  1.0
  S  S217  1  0.59232000  0.70917000  0.66917000  1.0
  S  S218  1  0.58849000  0.82440000  0.53856000  1.0
  S  S219  1  0.21062000  0.36434000  0.19003000  1.0
  S  S220  1  0.22337000  0.40174000  0.29027000  1.0
  S  S221  1  0.14829000  0.47517000  0.16842000  1.0
  S  S222  1  0.78961000  0.64611000  0.58560000  1.0
  S  S223  1  0.93016000  0.62334000  0.56846000  1.0
  S  S224  1  0.86103000  0.56764000  0.69396000  1.0
  S  S225  1  0.60311000  0.17584000  0.46972000  1.0
  S  S226  1  0.53385000  0.28594000  0.36177000  1.0
  S  S227  1  0.53009000  0.15178000  0.38720000  1.0
  S  S228  1  0.27488000  0.68773000  0.78120000  1.0
  S  S229  1  0.30125000  0.55345000  0.88359000  1.0
  S  S230  1  0.19811000  0.59307000  0.78330000  1.0
  S  S231  1  0.28240000  0.78136000  0.94007000  1.0
  S  S232  1  0.16275000  0.86134000  0.91722000  1.0
  S  S233  1  0.18111000  0.72913000  0.02617000  1.0
  S  S234  1  0.75672000  0.71269000  0.26926000  1.0
  S  S235  1  0.80492000  0.81849000  0.14484000  1.0
  S  S236  1  0.83085000  0.68011000  0.19501000  1.0
  S  S237  1  0.54997000  0.92751000  0.30106000  1.0
  S  S238  1  0.40675000  0.90874000  0.28960000  1.0
  S  S239  1  0.46859000  0.03180000  0.26240000  1.0
  S  S240  1  0.16876000  0.18764000  0.12518000  1.0
  S  S241  1  0.06864000  0.27645000  0.12429000  1.0
  S  S242  1  0.10843000  0.26374000  0.01289000  1.0
  S  S243  1  0.82381000  0.29593000  0.71461000  1.0
  S  S244  1  0.92965000  0.20921000  0.79789000  1.0
  S  S245  1  0.89743000  0.33657000  0.78315000  1.0
  S  S246  1  0.56561000  0.11455000  0.69231000  1.0
  S  S247  1  0.60715000  0.00293000  0.81623000  1.0
  S  S248  1  0.48950000  0.00825000  0.74170000  1.0
  O  O249  1  0.93958000  0.58240000  0.24679000  1.0
  O  O250  1  0.95123000  0.54499000  0.20536000  1.0
  O  O251  1  0.01342000  0.62647000  0.14743000  1.0
  O  O252  1  0.94123000  0.59401000  0.10056000  1.0
  O  O253  1  0.01524000  0.61306000  0.06413000  1.0
  O  O254  1  0.11636000  0.57741000  0.19569000  1.0
  O  O255  1  0.08503000  0.56156000  0.14112000  1.0
  O  O256  1  0.04951000  0.72515000  0.07571000  1.0
  O  O257  1  0.09487000  0.66510000  0.07899000  1.0
  O  O258  1  0.94861000  0.71130000  0.12159000  1.0
  O  O259  1  0.90769000  0.64101000  0.15416000  1.0
  O  O260  1  0.60867000  0.82418000  0.44544000  1.0
  O  O261  1  0.60587000  0.74474000  0.47956000  1.0
  O  O262  1  0.67655000  0.76356000  0.40696000  1.0
  O  O263  1  0.59939000  0.68807000  0.43299000  1.0
  O  O264  1  0.67723000  0.66156000  0.43967000  1.0
  O  O265  1  0.71341000  0.68745000  0.50785000  1.0
  O  O266  1  0.76513000  0.70636000  0.44760000  1.0
  O  O267  1  0.70558000  0.80359000  0.30568000  1.0
  O  O268  1  0.72904000  0.72659000  0.35225000  1.0
  O  O269  1  0.62736000  0.84944000  0.33269000  1.0
  O  O270  1  0.57259000  0.79201000  0.37921000  1.0
  O  O271  1  0.25102000  0.27490000  0.19525000  1.0
  O  O272  1  0.27128000  0.23971000  0.27231000  1.0
  O  O273  1  0.33229000  0.18370000  0.24349000  1.0
  O  O274  1  0.27326000  0.13515000  0.33345000  1.0
  O  O275  1  0.35153000  0.10906000  0.34228000  1.0
  O  O276  1  0.45892000  0.11326000  0.34346000  1.0
  O  O277  1  0.42375000  0.18303000  0.29386000  1.0
  O  O278  1  0.34416000  0.10050000  0.22768000  1.0
  O  O279  1  0.40816000  0.10923000  0.26658000  1.0
  O  O280  1  0.25909000  0.16712000  0.18504000  1.0
  O  O281  1  0.22349000  0.18051000  0.24039000  1.0
  O  O282  1  0.89910000  0.48736000  0.78781000  1.0
  O  O283  1  0.97516000  0.48796000  0.76229000  1.0
  O  O284  1  0.05403000  0.43145000  0.82563000  1.0
  O  O285  1  0.96474000  0.45547000  0.86439000  1.0
  O  O286  1  0.03475000  0.48986000  0.86843000  1.0
  O  O287  1  0.10901000  0.53340000  0.79239000  1.0
  O  O288  1  0.13537000  0.46822000  0.85766000  1.0
  O  O289  1  0.07994000  0.33666000  0.90864000  1.0
  O  O290  1  0.06959000  0.39427000  0.92776000  1.0
  O  O291  1  0.02609000  0.34279000  0.82880000  1.0
  O  O292  1  0.95942000  0.38633000  0.82561000  1.0
  O  O293  1  0.65090000  0.17849000  0.55433000  1.0
  O  O294  1  0.63497000  0.25579000  0.52614000  1.0
  O  O295  1  0.72146000  0.25256000  0.58097000  1.0
  O  O296  1  0.63180000  0.30887000  0.57627000  1.0
  O  O297  1  0.70319000  0.34741000  0.56885000  1.0
  O  O298  1  0.82487000  0.26242000  0.54212000  1.0
  O  O299  1  0.79168000  0.33092000  0.53015000  1.0
  O  O300  1  0.78868000  0.21032000  0.66643000  1.0
  O  O301  1  0.77888000  0.28992000  0.63303000  1.0
  O  O302  1  0.69891000  0.16087000  0.66805000  1.0
  O  O303  1  0.63012000  0.20257000  0.63135000  1.0
  O  O304  1  0.36295000  0.73689000  0.84301000  1.0
  O  O305  1  0.31906000  0.77649000  0.77592000  1.0
  O  O306  1  0.40522000  0.82959000  0.77310000  1.0
  O  O307  1  0.32155000  0.87850000  0.70640000  1.0
  O  O308  1  0.39572000  0.90963000  0.67549000  1.0
  O  O309  1  0.50577000  0.79114000  0.77147000  1.0
  O  O310  1  0.48517000  0.85680000  0.70300000  1.0
  O  O311  1  0.45890000  0.87329000  0.82250000  1.0
  O  O312  1  0.45896000  0.91901000  0.74193000  1.0
  O  O313  1  0.36995000  0.81585000  0.86620000  1.0
  O  O314  1  0.31143000  0.84556000  0.80892000  1.0
