# generated using pymatgen
data_CsIn3H288C207(NO2)24
_symmetry_space_group_name_H-M   'P 1'
_cell_length_a   29.14050000
_cell_length_b   29.28370000
_cell_length_c   29.30520000
_cell_angle_alpha   82.51700000
_cell_angle_beta   82.84400000
_cell_angle_gamma   96.72400000
_symmetry_Int_Tables_number   1
_chemical_formula_structural   CsIn3H288C207(NO2)24
_chemical_formula_sum   'Cs1 In3 H288 C207 N24 O48'
_cell_volume   24374.31802123
_cell_formula_units_Z   1
loop_
 _symmetry_equiv_pos_site_id
 _symmetry_equiv_pos_as_xyz
  1  'x, y, z'
loop_
 _atom_site_type_symbol
 _atom_site_label
 _atom_site_symmetry_multiplicity
 _atom_site_fract_x
 _atom_site_fract_y
 _atom_site_fract_z
 _atom_site_occupancy
  Cs  Cs0  1  0.00743000  0.97630000  0.01937000  1.0
  In  In1  1  0.07636000  0.00493000  0.12335000  1.0
  In  In2  1  0.90246000  0.03917000  0.96809000  1.0
  In  In3  1  0.04837000  0.87230000  0.95487000  1.0
  H  H4  1  0.33666000  0.00345000  0.40813000  1.0
  H  H5  1  0.65120000  0.87606000  0.67220000  1.0
  H  H6  1  0.40615000  0.88865000  0.37211000  1.0
  H  H7  1  0.45721000  0.89974000  0.43093000  1.0
  H  H8  1  0.41826000  0.09702000  0.45134000  1.0
  H  H9  1  0.37067000  0.07793000  0.42205000  1.0
  H  H10  1  0.42958000  0.06504000  0.40439000  1.0
  H  H11  1  0.50187000  0.92169000  0.48285000  1.0
  H  H12  1  0.45866000  0.92400000  0.53045000  1.0
  H  H13  1  0.58305000  0.87881000  0.63056000  1.0
  H  H14  1  0.53568000  0.90773000  0.55784000  1.0
  H  H15  1  0.58679000  0.94764000  0.54021000  1.0
  H  H16  1  0.66467000  0.02466000  0.66803000  1.0
  H  H17  1  0.60075000  0.09174000  0.57191000  1.0
  H  H18  1  0.62151000  0.04091000  0.55399000  1.0
  H  H19  1  0.69669000  0.97394000  0.36878000  1.0
  H  H20  1  0.37548000  0.06104000  0.67809000  1.0
  H  H21  1  0.62572000  0.08738000  0.31722000  1.0
  H  H22  1  0.56161000  0.06242000  0.38180000  1.0
  H  H23  1  0.59590000  0.87094000  0.44522000  1.0
  H  H24  1  0.63555000  0.88863000  0.39214000  1.0
  H  H25  1  0.57828000  0.90830000  0.39961000  1.0
  H  H26  1  0.54386000  0.04266000  0.47736000  1.0
  H  H27  1  0.59123000  0.01396000  0.49383000  1.0
  H  H28  1  0.45113000  0.04619000  0.64242000  1.0
  H  H29  1  0.51869000  0.03225000  0.56833000  1.0
  H  H30  1  0.47438000  0.02991000  0.53161000  1.0
  H  H31  1  0.30721000  0.96543000  0.59915000  1.0
  H  H32  1  0.38298000  0.86985000  0.56552000  1.0
  H  H33  1  0.34354000  0.88771000  0.60951000  1.0
  H  H34  1  0.40654000  0.89486000  0.61149000  1.0
  H  H35  1  0.65399000  0.07564000  0.58973000  1.0
  H  H36  1  0.04288000  0.67504000  0.35556000  1.0
  H  H37  1  0.89992000  0.30644000  0.67602000  1.0
  H  H38  1  0.90261000  0.60674000  0.39508000  1.0
  H  H39  1  0.92818000  0.54821000  0.44773000  1.0
  H  H40  1  0.14119000  0.65558000  0.41973000  1.0
  H  H41  1  0.09065000  0.68463000  0.42074000  1.0
  H  H42  1  0.11843000  0.66831000  0.36638000  1.0
  H  H43  1  0.96303000  0.49122000  0.47454000  1.0
  H  H44  1  0.97319000  0.53030000  0.51657000  1.0
  H  H45  1  0.92730000  0.34609000  0.59633000  1.0
  H  H46  1  0.96459000  0.45822000  0.57726000  1.0
  H  H47  1  0.95464000  0.42430000  0.53246000  1.0
  H  H48  1  0.01549000  0.38285000  0.72425000  1.0
  H  H49  1  0.12200000  0.43167000  0.62385000  1.0
  H  H50  1  0.08733000  0.38779000  0.60135000  1.0
  H  H51  1  0.97068000  0.31458000  0.37982000  1.0
  H  H52  1  0.14497000  0.61652000  0.62059000  1.0
  H  H53  1  0.11818000  0.36455000  0.35560000  1.0
  H  H54  1  0.10420000  0.42812000  0.39991000  1.0
  H  H55  1  0.90005000  0.36168000  0.48735000  1.0
  H  H56  1  0.95918000  0.35813000  0.49646000  1.0
  H  H57  1  0.92779000  0.31474000  0.46801000  1.0
  H  H58  1  0.07902000  0.47018000  0.46487000  1.0
  H  H59  1  0.05213000  0.41514000  0.49482000  1.0
  H  H60  1  0.12306000  0.54518000  0.58826000  1.0
  H  H61  1  0.08496000  0.48371000  0.54266000  1.0
  H  H62  1  0.06759000  0.53735000  0.52092000  1.0
  H  H63  1  0.99974000  0.62668000  0.66071000  1.0
  H  H64  1  0.90955000  0.55792000  0.59693000  1.0
  H  H65  1  0.96275000  0.58706000  0.56271000  1.0
  H  H66  1  0.93653000  0.61040000  0.61297000  1.0
  H  H67  1  0.09505000  0.38075000  0.66292000  1.0
  H  H68  1  0.37633000  0.65563000  0.97313000  1.0
  H  H69  1  0.64150000  0.35242000  0.14760000  1.0
  H  H70  1  0.33572000  0.57404000  0.10754000  1.0
  H  H71  1  0.39949000  0.52871000  0.09405000  1.0
  H  H72  1  0.45442000  0.62115000  0.87845000  1.0
  H  H73  1  0.43093000  0.66475000  0.90793000  1.0
  H  H74  1  0.39634000  0.60783000  0.90861000  1.0
  H  H75  1  0.45165000  0.48519000  0.06870000  1.0
  H  H76  1  0.49530000  0.53523000  0.06596000  1.0
  H  H77  1  0.60604000  0.42145000  0.12051000  1.0
  H  H78  1  0.54072000  0.46728000  0.08846000  1.0
  H  H79  1  0.50942000  0.41863000  0.06977000  1.0
  H  H80  1  0.61776000  0.29621000  0.02251000  1.0
  H  H81  1  0.61071000  0.40219000  0.91990000  1.0
  H  H82  1  0.64468000  0.36101000  0.94532000  1.0
  H  H83  1  0.37839000  0.29025000  0.06047000  1.0
  H  H84  1  0.72137000  0.57825000  0.91274000  1.0
  H  H85  1  0.38187000  0.34274000  0.91550000  1.0
  H  H86  1  0.43243000  0.41259000  0.92498000  1.0
  H  H87  1  0.47885000  0.34378000  0.12302000  1.0
  H  H88  1  0.49653000  0.33701000  0.06382000  1.0
  H  H89  1  0.45041000  0.29587000  0.10049000  1.0
  H  H90  1  0.49158000  0.47560000  0.95384000  1.0
  H  H91  1  0.51580000  0.42655000  0.97895000  1.0
  H  H92  1  0.65011000  0.52403000  0.94057000  1.0
  H  H93  1  0.56895000  0.50785000  0.95964000  1.0
  H  H94  1  0.54390000  0.55464000  0.98276000  1.0
  H  H95  1  0.69147000  0.65298000  0.02823000  1.0
  H  H96  1  0.60382000  0.57096000  0.13257000  1.0
  H  H97  1  0.66342000  0.58988000  0.10734000  1.0
  H  H98  1  0.63158000  0.53659000  0.09445000  1.0
  H  H99  1  0.64278000  0.41759000  0.96489000  1.0
  H  H100  1  0.34171000  0.88253000  0.31539000  1.0
  H  H101  1  0.29920000  0.88741000  0.36428000  1.0
  H  H102  1  0.23305000  0.86358000  0.33049000  1.0
  H  H103  1  0.26349000  0.85589000  0.27512000  1.0
  H  H104  1  0.32097000  0.91649000  0.23126000  1.0
  H  H105  1  0.33623000  0.96977000  0.25354000  1.0
  H  H106  1  0.20531000  0.93852000  0.13789000  1.0
  H  H107  1  0.16207000  0.89838000  0.17689000  1.0
  H  H108  1  0.16193000  0.95636000  0.23479000  1.0
  H  H109  1  0.20535000  0.99438000  0.19528000  1.0
  H  H110  1  0.28640000  0.98225000  0.19349000  1.0
  H  H111  1  0.26006000  0.99352000  0.24935000  1.0
  H  H112  1  0.19290000  0.92365000  0.29610000  1.0
  H  H113  1  0.18439000  0.87394000  0.26612000  1.0
  H  H114  1  0.32679000  0.97918000  0.33844000  1.0
  H  H115  1  0.37830000  0.95955000  0.31224000  1.0
  H  H116  1  0.98591000  0.26187000  0.32903000  1.0
  H  H117  1  0.00841000  0.31109000  0.28581000  1.0
  H  H118  1  0.01699000  0.28651000  0.21285000  1.0
  H  H119  1  0.97325000  0.23908000  0.24056000  1.0
  H  H120  1  0.99205000  0.18546000  0.30793000  1.0
  H  H121  1  0.04859000  0.19622000  0.32614000  1.0
  H  H122  1  0.98309000  0.09977000  0.18240000  1.0
  H  H123  1  0.00715000  0.13589000  0.12862000  1.0
  H  H124  1  0.07871000  0.16231000  0.15973000  1.0
  H  H125  1  0.06875000  0.11576000  0.20572000  1.0
  H  H126  1  0.04360000  0.13146000  0.27999000  1.0
  H  H127  1  0.08825000  0.17846000  0.25342000  1.0
  H  H128  1  0.06912000  0.23382000  0.18412000  1.0
  H  H129  1  0.01260000  0.22150000  0.16613000  1.0
  H  H130  1  0.08930000  0.30672000  0.31107000  1.0
  H  H131  1  0.06172000  0.26543000  0.35959000  1.0
  H  H132  1  0.71262000  0.97424000  0.28799000  1.0
  H  H133  1  0.66964000  0.99952000  0.25777000  1.0
  H  H134  1  0.69752000  0.98660000  0.18253000  1.0
  H  H135  1  0.73713000  0.95153000  0.20854000  1.0
  H  H136  1  0.79510000  0.99063000  0.25555000  1.0
  H  H137  1  0.79422000  0.05162000  0.25938000  1.0
  H  H138  1  0.88849000  0.95806000  0.11042000  1.0
  H  H139  1  0.82840000  0.94932000  0.10015000  1.0
  H  H140  1  0.84078000  0.04614000  0.09547000  1.0
  H  H141  1  0.88588000  0.03233000  0.12829000  1.0
  H  H142  1  0.85849000  0.04064000  0.20320000  1.0
  H  H143  1  0.81798000  0.07435000  0.17677000  1.0
  H  H144  1  0.76182000  0.03601000  0.13088000  1.0
  H  H145  1  0.76282000  0.97572000  0.12520000  1.0
  H  H146  1  0.69925000  0.07867000  0.27643000  1.0
  H  H147  1  0.73696000  0.05136000  0.31291000  1.0
  H  H148  1  0.92403000  0.73343000  0.35701000  1.0
  H  H149  1  0.98337000  0.73326000  0.36728000  1.0
  H  H150  1  0.01437000  0.80787000  0.32972000  1.0
  H  H151  1  0.95740000  0.82112000  0.31886000  1.0
  H  H152  1  0.91023000  0.76993000  0.27584000  1.0
  H  H153  1  0.93203000  0.71881000  0.25838000  1.0
  H  H154  1  0.95156000  0.89654000  0.14300000  1.0
  H  H155  1  0.95520000  0.90682000  0.20229000  1.0
  H  H156  1  0.03932000  0.86766000  0.17567000  1.0
  H  H157  1  0.99727000  0.83864000  0.14749000  1.0
  H  H158  1  0.94041000  0.78004000  0.19213000  1.0
  H  H159  1  0.99668000  0.76526000  0.20449000  1.0
  H  H160  1  0.04541000  0.82289000  0.24756000  1.0
  H  H161  1  0.01819000  0.87193000  0.26347000  1.0
  H  H162  1  0.98091000  0.67362000  0.30118000  1.0
  H  H163  1  0.92076000  0.66301000  0.32709000  1.0
  H  H164  1  0.68179000  0.97641000  0.75799000  1.0
  H  H165  1  0.67678000  0.91453000  0.76349000  1.0
  H  H166  1  0.73172000  0.87948000  0.80387000  1.0
  H  H167  1  0.72012000  0.92423000  0.83880000  1.0
  H  H168  1  0.74129000  0.00738000  0.80247000  1.0
  H  H169  1  0.76720000  0.02014000  0.74238000  1.0
  H  H170  1  0.83464000  0.92319000  0.91017000  1.0
  H  H171  1  0.89378000  0.91489000  0.89199000  1.0
  H  H172  1  0.88368000  0.94197000  0.81691000  1.0
  H  H173  1  0.88316000  0.99766000  0.83356000  1.0
  H  H174  1  0.82581000  0.03117000  0.79582000  1.0
  H  H175  1  0.83813000  0.98805000  0.75909000  1.0
  H  H176  1  0.81614000  0.90090000  0.79712000  1.0
  H  H177  1  0.79057000  0.89021000  0.85729000  1.0
  H  H178  1  0.72486000  0.91847000  0.68704000  1.0
  H  H179  1  0.73298000  0.98092000  0.68006000  1.0
  H  H180  1  0.03884000  0.64135000  0.72667000  1.0
  H  H181  1  0.09959000  0.64558000  0.73094000  1.0
  H  H182  1  0.11486000  0.69662000  0.78394000  1.0
  H  H183  1  0.05326000  0.68051000  0.80419000  1.0
  H  H184  1  0.99608000  0.70189000  0.74845000  1.0
  H  H185  1  0.01897000  0.73006000  0.69051000  1.0
  H  H186  1  0.96392000  0.80730000  0.85930000  1.0
  H  H187  1  0.00154000  0.76455000  0.87409000  1.0
  H  H188  1  0.06309000  0.83464000  0.81109000  1.0
  H  H189  1  0.00860000  0.83738000  0.79039000  1.0
  H  H190  1  0.99023000  0.78524000  0.73950000  1.0
  H  H191  1  0.05224000  0.80009000  0.72008000  1.0
  H  H192  1  0.10786000  0.77944000  0.77749000  1.0
  H  H193  1  0.08306000  0.75036000  0.83489000  1.0
  H  H194  1  0.12478000  0.68347000  0.65405000  1.0
  H  H195  1  0.06844000  0.69842000  0.64544000  1.0
  H  H196  1  0.31089000  0.04654000  0.72743000  1.0
  H  H197  1  0.28322000  0.07789000  0.68400000  1.0
  H  H198  1  0.20951000  0.09145000  0.71429000  1.0
  H  H199  1  0.23358000  0.09004000  0.76837000  1.0
  H  H200  1  0.26186000  0.01678000  0.80144000  1.0
  H  H201  1  0.25868000  0.96790000  0.77001000  1.0
  H  H202  1  0.16051000  0.98757000  0.89932000  1.0
  H  H203  1  0.11315000  0.02018000  0.91167000  1.0
  H  H204  1  0.09656000  0.02825000  0.83736000  1.0
  H  H205  1  0.10432000  0.97091000  0.82766000  1.0
  H  H206  1  0.19623000  0.95672000  0.83650000  1.0
  H  H207  1  0.17329000  0.95798000  0.78209000  1.0
  H  H208  1  0.14322000  0.03310000  0.74950000  1.0
  H  H209  1  0.14782000  0.08125000  0.78228000  1.0
  H  H210  1  0.26009000  0.00704000  0.65094000  1.0
  H  H211  1  0.28434000  0.97254000  0.69351000  1.0
  H  H212  1  0.94028000  0.23975000  0.73594000  1.0
  H  H213  1  0.99661000  0.27244000  0.71951000  1.0
  H  H214  1  0.05148000  0.24868000  0.76300000  1.0
  H  H215  1  0.01581000  0.19306000  0.76705000  1.0
  H  H216  1  0.93215000  0.18418000  0.80657000  1.0
  H  H217  1  0.91136000  0.23367000  0.82897000  1.0
  H  H218  1  0.03682000  0.10274000  0.87258000  1.0
  H  H219  1  0.05068000  0.10088000  0.93098000  1.0
  H  H220  1  0.05137000  0.18093000  0.91142000  1.0
  H  H221  1  0.99289000  0.16527000  0.93803000  1.0
  H  H222  1  0.92988000  0.17507000  0.89113000  1.0
  H  H223  1  0.96423000  0.23103000  0.88810000  1.0
  H  H224  1  0.04921000  0.24136000  0.84706000  1.0
  H  H225  1  0.07006000  0.19152000  0.82508000  1.0
  H  H226  1  0.96045000  0.32859000  0.77905000  1.0
  H  H227  1  0.90679000  0.30251000  0.76270000  1.0
  H  H228  1  0.31664000  0.69419000  0.08870000  1.0
  H  H229  1  0.34438000  0.70903000  0.02959000  1.0
  H  H230  1  0.31439000  0.77870000  0.00949000  1.0
  H  H231  1  0.28800000  0.77721000  0.06867000  1.0
  H  H232  1  0.23237000  0.70877000  0.10700000  1.0
  H  H233  1  0.21891000  0.66153000  0.07512000  1.0
  H  H234  1  0.12766000  0.83331000  0.07570000  1.0
  H  H235  1  0.17230000  0.86622000  0.03222000  1.0
  H  H236  1  0.16606000  0.79689000  0.98480000  1.0
  H  H237  1  0.12488000  0.76637000  0.03137000  1.0
  H  H238  1  0.15578000  0.71019000  0.07953000  1.0
  H  H239  1  0.18128000  0.70872000  0.02059000  1.0
  H  H240  1  0.24057000  0.78221000  0.97996000  1.0
  H  H241  1  0.25047000  0.82807000  0.01442000  1.0
  H  H242  1  0.29021000  0.63692000  0.01268000  1.0
  H  H243  1  0.28076000  0.61934000  0.07451000  1.0
  H  H244  1  0.76784000  0.71507000  0.91357000  1.0
  H  H245  1  0.72666000  0.70961000  0.96487000  1.0
  H  H246  1  0.75586000  0.76790000  0.00326000  1.0
  H  H247  1  0.79857000  0.79241000  0.95340000  1.0
  H  H248  1  0.85281000  0.74363000  0.91989000  1.0
  H  H249  1  0.84966000  0.68363000  0.94470000  1.0
  H  H250  1  0.89872000  0.86070000  0.01373000  1.0
  H  H251  1  0.92334000  0.84967000  0.06619000  1.0
  H  H252  1  0.88814000  0.77441000  0.07158000  1.0
  H  H253  1  0.93620000  0.76710000  0.03244000  1.0
  H  H254  1  0.91569000  0.73230000  0.96714000  1.0
  H  H255  1  0.87450000  0.70352000  0.01662000  1.0
  H  H256  1  0.81479000  0.75717000  0.05329000  1.0
  H  H257  1  0.82231000  0.81676000  0.02545000  1.0
  H  H258  1  0.77782000  0.63510000  0.98623000  1.0
  H  H259  1  0.77889000  0.63735000  0.92489000  1.0
  H  H260  1  0.32980000  0.27103000  0.91457000  1.0
  H  H261  1  0.36552000  0.23501000  0.94574000  1.0
  H  H262  1  0.33220000  0.16098000  0.93973000  1.0
  H  H263  1  0.28751000  0.17444000  0.90471000  1.0
  H  H264  1  0.23696000  0.22843000  0.92288000  1.0
  H  H265  1  0.24328000  0.26144000  0.96963000  1.0
  H  H266  1  0.12384000  0.09855000  0.99113000  1.0
  H  H267  1  0.16329000  0.05675000  0.98163000  1.0
  H  H268  1  0.21067000  0.08799000  0.04033000  1.0
  H  H269  1  0.17110000  0.12835000  0.04970000  1.0
  H  H270  1  0.17614000  0.20013000  0.99084000  1.0
  H  H271  1  0.22064000  0.19488000  0.02819000  1.0
  H  H272  1  0.27828000  0.12384000  0.00465000  1.0
  H  H273  1  0.26119000  0.09972000  0.95479000  1.0
  H  H274  1  0.32165000  0.25741000  0.02174000  1.0
  H  H275  1  0.30454000  0.30349000  0.98401000  1.0
  H  H276  1  0.71374000  0.31179000  0.04609000  1.0
  H  H277  1  0.72702000  0.30977000  0.10396000  1.0
  H  H278  1  0.78186000  0.25895000  0.11807000  1.0
  H  H279  1  0.79967000  0.27616000  0.05635000  1.0
  H  H280  1  0.74210000  0.25507000  0.00187000  1.0
  H  H281  1  0.68486000  0.22577000  0.02654000  1.0
  H  H282  1  0.85907000  0.17920000  0.97381000  1.0
  H  H283  1  0.88188000  0.16926000  0.02858000  1.0
  H  H284  1  0.80788000  0.12065000  0.06513000  1.0
  H  H285  1  0.78770000  0.12100000  0.01000000  1.0
  H  H286  1  0.73522000  0.17229000  0.99494000  1.0
  H  H287  1  0.71776000  0.15583000  0.05688000  1.0
  H  H288  1  0.77721000  0.17638000  0.11060000  1.0
  H  H289  1  0.83372000  0.20661000  0.08432000  1.0
  H  H290  1  0.65433000  0.27118000  0.13994000  1.0
  H  H291  1  0.64028000  0.24708000  0.08931000  1.0
  C  C292  1  0.58665000  0.95338000  0.62231000  1.0
  C  C293  1  0.66358000  0.95029000  0.67301000  1.0
  C  C294  1  0.64756000  0.99275000  0.65922000  1.0
  C  C295  1  0.60970000  0.99459000  0.63370000  1.0
  C  C296  1  0.61868000  0.06167000  0.58309000  1.0
  C  C297  1  0.66753000  0.99371000  0.37161000  1.0
  C  C298  1  0.37620000  0.03759000  0.65257000  1.0
  C  C299  1  0.66584000  0.03253000  0.33849000  1.0
  C  C300  1  0.63024000  0.97858000  0.40703000  1.0
  C  C301  1  0.62778000  0.05764000  0.34266000  1.0
  C  C302  1  0.59154000  0.04373000  0.37926000  1.0
  C  C303  1  0.60899000  0.90035000  0.41702000  1.0
  C  C304  1  0.55543000  0.00781000  0.48436000  1.0
  C  C305  1  0.59296000  0.00453000  0.41152000  1.0
  C  C306  1  0.41974000  0.02931000  0.63217000  1.0
  C  C307  1  0.49377000  0.00779000  0.55444000  1.0
  C  C308  1  0.42280000  0.99622000  0.60198000  1.0
  C  C309  1  0.33512000  0.01299000  0.64235000  1.0
  C  C310  1  0.33847000  0.98432000  0.60782000  1.0
  C  C311  1  0.38181000  0.97417000  0.58909000  1.0
  C  C312  1  0.37879000  0.89665000  0.58862000  1.0
  C  C313  1  0.52126000  0.97623000  0.52520000  1.0
  C  C314  1  0.36200000  0.97985000  0.41408000  1.0
  C  C315  1  0.63990000  0.90934000  0.66200000  1.0
  C  C316  1  0.36786000  0.94545000  0.38570000  1.0
  C  C317  1  0.39296000  0.98834000  0.44581000  1.0
  C  C318  1  0.40065000  0.91499000  0.39421000  1.0
  C  C319  1  0.42985000  0.92142000  0.42808000  1.0
  C  C320  1  0.40315000  0.06814000  0.43449000  1.0
  C  C321  1  0.48430000  0.94582000  0.50318000  1.0
  C  C322  1  0.42709000  0.95923000  0.45322000  1.0
  C  C323  1  0.60152000  0.91086000  0.63757000  1.0
  C  C324  1  0.54971000  0.94490000  0.55656000  1.0
  C  C325  1  0.98664000  0.38713000  0.61491000  1.0
  C  C326  1  0.95558000  0.34205000  0.70586000  1.0
  C  C327  1  0.99532000  0.37567000  0.69670000  1.0
  C  C328  1  0.01142000  0.39768000  0.65130000  1.0
  C  C329  1  0.09019000  0.40564000  0.63238000  1.0
  C  C330  1  0.00031000  0.33848000  0.38459000  1.0
  C  C331  1  0.10836000  0.60384000  0.62165000  1.0
  C  C332  1  0.04554000  0.33462000  0.36324000  1.0
  C  C333  1  0.99252000  0.37391000  0.41188000  1.0
  C  C334  1  0.08277000  0.36692000  0.37049000  1.0
  C  C335  1  0.07498000  0.40296000  0.39645000  1.0
  C  C336  1  0.93368000  0.35215000  0.47186000  1.0
  C  C337  1  0.04444000  0.44927000  0.47811000  1.0
  C  C338  1  0.02996000  0.40656000  0.41798000  1.0
  C  C339  1  0.09587000  0.56357000  0.60264000  1.0
  C  C340  1  0.05399000  0.50242000  0.54135000  1.0
  C  C341  1  0.04863000  0.54720000  0.60183000  1.0
  C  C342  1  0.07385000  0.62718000  0.64240000  1.0
  C  C343  1  0.02673000  0.60977000  0.64353000  1.0
  C  C344  1  0.01392000  0.57040000  0.62298000  1.0
  C  C345  1  0.94373000  0.57816000  0.59872000  1.0
  C  C346  1  0.01780000  0.47527000  0.51532000  1.0
  C  C347  1  0.01865000  0.64781000  0.37756000  1.0
  C  C348  1  0.93026000  0.33276000  0.66965000  1.0
  C  C349  1  0.97139000  0.64473000  0.37203000  1.0
  C  C350  1  0.03453000  0.61445000  0.40894000  1.0
  C  C351  1  0.93923000  0.60956000  0.39915000  1.0
  C  C352  1  0.95437000  0.57585000  0.42947000  1.0
  C  C353  1  0.10842000  0.65786000  0.40447000  1.0
  C  C354  1  0.99023000  0.51074000  0.49069000  1.0
  C  C355  1  0.00246000  0.57706000  0.43340000  1.0
  C  C356  1  0.94591000  0.35499000  0.62439000  1.0
  C  C357  1  0.98254000  0.43969000  0.55062000  1.0
  C  C358  1  0.58985000  0.39746000  0.05705000  1.0
  C  C359  1  0.63131000  0.31890000  0.08740000  1.0
  C  C360  1  0.61379000  0.32271000  0.04477000  1.0
  C  C361  1  0.59438000  0.36235000  0.02896000  1.0
  C  C362  1  0.62212000  0.38799000  0.95294000  1.0
  C  C363  1  0.39239000  0.31544000  0.03000000  1.0
  C  C364  1  0.69837000  0.58446000  0.94261000  1.0
  C  C365  1  0.37619000  0.31158000  0.98745000  1.0
  C  C366  1  0.42235000  0.35466000  0.03537000  1.0
  C  C367  1  0.39407000  0.34496000  0.94863000  1.0
  C  C368  1  0.42298000  0.38474000  0.95398000  1.0
  C  C369  1  0.46590000  0.33299000  0.09150000  1.0
  C  C370  1  0.49330000  0.45360000  0.98737000  1.0
  C  C371  1  0.43496000  0.39095000  0.99781000  1.0
  C  C372  1  0.65763000  0.55372000  0.95822000  1.0
  C  C373  1  0.55624000  0.52055000  0.99253000  1.0
  C  C374  1  0.62803000  0.55996000  0.99780000  1.0
  C  C375  1  0.71101000  0.62065000  0.96748000  1.0
  C  C376  1  0.68131000  0.62667000  0.00728000  1.0
  C  C377  1  0.64007000  0.59625000  0.02259000  1.0
  C  C378  1  0.62917000  0.57307000  0.10061000  1.0
  C  C379  1  0.51576000  0.48387000  0.02096000  1.0
  C  C380  1  0.38225000  0.62794000  0.99905000  1.0
  C  C381  1  0.62735000  0.35432000  0.11505000  1.0
  C  C382  1  0.35115000  0.61794000  0.04073000  1.0
  C  C383  1  0.41915000  0.60117000  0.99013000  1.0
  C  C384  1  0.35931000  0.58281000  0.07515000  1.0
  C  C385  1  0.39622000  0.55667000  0.06723000  1.0
  C  C386  1  0.43153000  0.62671000  0.90985000  1.0
  C  C387  1  0.47823000  0.51078000  0.04510000  1.0
  C  C388  1  0.42598000  0.56497000  0.02423000  1.0
  C  C389  1  0.60690000  0.39340000  0.09987000  1.0
  C  C390  1  0.53527000  0.44997000  0.05760000  1.0
  C  C391  1  0.97919000  0.07957000  0.92625000  1.0
  C  C392  1  0.87423000  0.99171000  0.04540000  1.0
  C  C393  1  0.97086000  0.85263000  0.00467000  1.0
  C  C394  1  0.10452000  0.85429000  0.00927000  1.0
  C  C395  1  0.13832000  0.96120000  0.14931000  1.0
  C  C396  1  0.02125000  0.83041000  0.89296000  1.0
  C  C397  1  0.12376000  0.04665000  0.04981000  1.0
  C  C398  1  0.09446000  0.94687000  0.91452000  1.0
  C  C399  1  0.01078000  0.94237000  0.15295000  1.0
  C  C400  1  0.88539000  0.97806000  0.92043000  1.0
  C  C401  1  0.03651000  0.07106000  0.14211000  1.0
  C  C402  1  0.87559000  0.11110000  0.99131000  1.0
  C  C403  1  0.34813000  0.94998000  0.34042000  1.0
  C  C404  1  0.31879000  0.90608000  0.33073000  1.0
  C  C405  1  0.24893000  0.88181000  0.29541000  1.0
  C  C406  1  0.30712000  0.94215000  0.25236000  1.0
  C  C407  1  0.17590000  0.93576000  0.16658000  1.0
  C  C408  1  0.19258000  0.95681000  0.20773000  1.0
  C  C409  1  0.27044000  0.96568000  0.22916000  1.0
  C  C410  1  0.21052000  0.90276000  0.27178000  1.0
  C  C411  1  0.05589000  0.29556000  0.33487000  1.0
  C  C412  1  0.01788000  0.27929000  0.30559000  1.0
  C  C413  1  0.01150000  0.25010000  0.23101000  1.0
  C  C414  1  0.02949000  0.19884000  0.29554000  1.0
  C  C415  1  0.01601000  0.11302000  0.15861000  1.0
  C  C416  1  0.05050000  0.14104000  0.18557000  1.0
  C  C417  1  0.04979000  0.16782000  0.26163000  1.0
  C  C418  1  0.03191000  0.21936000  0.19657000  1.0
  C  C419  1  0.70392000  0.04589000  0.29812000  1.0
  C  C420  1  0.70513000  0.00683000  0.26786000  1.0
  C  C421  1  0.73311000  0.98732000  0.19271000  1.0
  C  C422  1  0.78800000  0.02429000  0.23720000  1.0
  C  C423  1  0.86031000  0.97500000  0.09567000  1.0
  C  C424  1  0.85164000  0.01770000  0.11934000  1.0
  C  C425  1  0.82282000  0.03898000  0.19316000  1.0
  C  C426  1  0.76852000  0.00195000  0.14879000  1.0
  C  C427  1  0.95668000  0.67561000  0.33319000  1.0
  C  C428  1  0.95902000  0.72653000  0.34172000  1.0
  C  C429  1  0.98864000  0.80611000  0.30473000  1.0
  C  C430  1  0.94238000  0.75515000  0.26389000  1.0
  C  C431  1  0.97548000  0.90113000  0.16925000  1.0
  C  C432  1  0.00076000  0.85830000  0.17726000  1.0
  C  C433  1  0.96592000  0.78174000  0.21732000  1.0
  C  C434  1  0.01133000  0.83489000  0.25832000  1.0
  C  C435  1  0.70820000  0.94926000  0.69524000  1.0
  C  C436  1  0.70050000  0.94712000  0.74865000  1.0
  C  C437  1  0.74449000  0.91517000  0.81000000  1.0
  C  C438  1  0.76477000  0.99520000  0.77494000  1.0
  C  C439  1  0.86911000  0.94103000  0.89219000  1.0
  C  C440  1  0.86425000  0.96156000  0.84119000  1.0
  C  C441  1  0.81405000  0.99548000  0.78902000  1.0
  C  C442  1  0.79380000  0.91466000  0.82438000  1.0
  C  C443  1  0.08671000  0.67115000  0.66234000  1.0
  C  C444  1  0.07274000  0.66428000  0.71549000  1.0
  C  C445  1  0.07964000  0.70684000  0.78101000  1.0
  C  C446  1  0.02538000  0.72652000  0.72724000  1.0
  C  C447  1  0.00085000  0.80170000  0.86035000  1.0
  C  C448  1  0.02830000  0.81407000  0.81128000  1.0
  C  C449  1  0.02509000  0.77425000  0.74282000  1.0
  C  C450  1  0.07838000  0.75422000  0.79753000  1.0
  C  C451  1  0.28866000  0.00776000  0.67282000  1.0
  C  C452  1  0.28223000  0.04358000  0.70579000  1.0
  C  C453  1  0.21332000  0.06890000  0.74681000  1.0
  C  C454  1  0.24110000  0.99807000  0.77842000  1.0
  C  C455  1  0.12405000  0.99128000  0.89363000  1.0
  C  C456  1  0.12069000  0.00169000  0.84150000  1.0
  C  C457  1  0.19246000  0.97956000  0.80414000  1.0
  C  C458  1  0.16445000  0.05087000  0.77279000  1.0
  C  C459  1  0.94514000  0.31086000  0.75198000  1.0
  C  C460  1  0.96599000  0.26539000  0.74761000  1.0
  C  C461  1  0.02267000  0.22404000  0.78482000  1.0
  C  C462  1  0.94251000  0.21548000  0.82280000  1.0
  C  C463  1  0.02432000  0.10961000  0.90811000  1.0
  C  C464  1  0.01762000  0.16102000  0.90705000  1.0
  C  C465  1  0.95841000  0.20033000  0.86976000  1.0
  C  C466  1  0.03891000  0.20966000  0.83140000  1.0
  C  C467  1  0.30582000  0.63960000  0.04515000  1.0
  C  C468  1  0.31183000  0.69151000  0.05203000  1.0
  C  C469  1  0.28209000  0.76630000  0.03463000  1.0
  C  C470  1  0.22824000  0.69980000  0.07184000  1.0
  C  C471  1  0.14181000  0.83858000  0.03816000  1.0
  C  C472  1  0.15707000  0.79228000  0.02334000  1.0
  C  C473  1  0.18749000  0.72212000  0.05354000  1.0
  C  C474  1  0.24187000  0.78985000  0.01610000  1.0
  C  C475  1  0.75948000  0.64691000  0.95661000  1.0
  C  C476  1  0.76107000  0.70019000  0.95107000  1.0
  C  C477  1  0.79192000  0.76700000  0.98602000  1.0
  C  C478  1  0.84516000  0.71895000  0.95302000  1.0
  C  C479  1  0.92276000  0.83967000  0.03102000  1.0
  C  C480  1  0.90594000  0.78703000  0.03554000  1.0
  C  C481  1  0.87989000  0.73136000  0.98594000  1.0
  C  C482  1  0.82564000  0.78051000  0.01952000  1.0
  C  C483  1  0.33171000  0.28023000  0.98759000  1.0
  C  C484  1  0.33215000  0.25014000  0.94849000  1.0
  C  C485  1  0.29624000  0.17038000  0.94081000  1.0
  C  C486  1  0.24614000  0.22692000  0.95872000  1.0
  C  C487  1  0.14888000  0.07796000  0.00729000  1.0
  C  C488  1  0.18779000  0.11005000  0.02219000  1.0
  C  C489  1  0.21208000  0.19144000  0.99259000  1.0
  C  C490  1  0.26268000  0.13135000  0.97209000  1.0
  C  C491  1  0.65683000  0.27859000  0.10145000  1.0
  C  C492  1  0.70879000  0.28918000  0.08053000  1.0
  C  C493  1  0.77799000  0.24914000  0.08320000  1.0
  C  C494  1  0.72228000  0.22956000  0.03130000  1.0
  C  C495  1  0.85862000  0.15390000  0.00566000  1.0
  C  C496  1  0.80852000  0.14251000  0.03089000  1.0
  C  C497  1  0.73943000  0.18245000  0.02963000  1.0
  C  C498  1  0.79594000  0.20220000  0.08087000  1.0
  N  N499  1  0.28540000  0.91968000  0.29918000  1.0
  N  N500  1  0.22923000  0.93200000  0.22650000  1.0
  N  N501  1  0.03493000  0.24765000  0.27305000  1.0
  N  N502  1  0.02810000  0.17019000  0.21817000  1.0
  N  N503  1  0.73982000  0.02063000  0.22580000  1.0
  N  N504  1  0.81643000  0.00490000  0.16100000  1.0
  N  N505  1  0.97573000  0.75766000  0.29769000  1.0
  N  N506  1  0.98036000  0.83041000  0.22233000  1.0
  N  N507  1  0.74610000  0.94830000  0.76711000  1.0
  N  N508  1  0.81503000  0.96146000  0.83108000  1.0
  N  N509  1  0.07066000  0.70960000  0.73227000  1.0
  N  N510  1  0.03331000  0.77078000  0.79152000  1.0
  N  N511  1  0.23702000  0.02926000  0.73574000  1.0
  N  N512  1  0.16736000  0.01872000  0.81514000  1.0
  N  N513  1  0.98045000  0.24687000  0.79213000  1.0
  N  N514  1  0.00147000  0.17845000  0.86284000  1.0
  N  N515  1  0.27162000  0.71519000  0.03912000  1.0
  N  N516  1  0.19612000  0.77381000  0.04570000  1.0
  N  N517  1  0.79757000  0.71991000  0.97624000  1.0
  N  N518  1  0.87458000  0.77709000  0.00085000  1.0
  N  N519  1  0.29250000  0.21290000  0.96134000  1.0
  N  N520  1  0.21445000  0.14323000  0.98262000  1.0
  N  N521  1  0.72845000  0.24534000  0.07627000  1.0
  N  N522  1  0.78895000  0.18615000  0.03623000  1.0
  O  O523  1  0.39292000  0.02750000  0.46784000  1.0
  O  O524  1  0.54525000  0.95404000  0.60346000  1.0
  O  O525  1  0.46315000  0.97753000  0.47463000  1.0
  O  O526  1  0.59236000  0.03616000  0.62396000  1.0
  O  O527  1  0.62949000  0.93782000  0.43687000  1.0
  O  O528  1  0.46454000  0.97937000  0.59214000  1.0
  O  O529  1  0.55464000  0.98719000  0.44338000  1.0
  O  O530  1  0.38332000  0.94039000  0.56057000  1.0
  O  O531  1  0.08145000  0.61356000  0.41401000  1.0
  O  O532  1  0.00575000  0.40350000  0.56955000  1.0
  O  O533  1  0.02171000  0.54116000  0.45652000  1.0
  O  O534  1  0.05162000  0.42927000  0.64267000  1.0
  O  O535  1  0.94741000  0.37984000  0.42818000  1.0
  O  O536  1  0.03577000  0.50446000  0.58824000  1.0
  O  O537  1  0.02080000  0.44533000  0.43877000  1.0
  O  O538  1  0.96759000  0.55117000  0.62882000  1.0
  O  O539  1  0.45097000  0.60951000  0.94929000  1.0
  O  O540  1  0.57904000  0.43950000  0.03753000  1.0
  O  O541  1  0.45752000  0.53545000  0.00986000  1.0
  O  O542  1  0.58210000  0.36809000  0.98476000  1.0
  O  O543  1  0.43176000  0.36097000  0.07930000  1.0
  O  O544  1  0.59327000  0.52542000  0.01892000  1.0
  O  O545  1  0.44707000  0.43534000  0.00699000  1.0
  O  O546  1  0.61293000  0.59985000  0.06379000  1.0
  O  O547  1  0.91667000  0.99964000  0.02480000  1.0
  O  O548  1  0.84685000  0.01068000  0.01920000  1.0
  O  O549  1  0.02297000  0.96111000  0.11023000  1.0
  O  O550  1  0.03707000  0.96137000  0.17963000  1.0
  O  O551  1  0.98689000  0.89280000  0.98065000  1.0
  O  O552  1  0.00160000  0.82438000  0.00101000  1.0
  O  O553  1  0.12372000  0.99601000  0.16755000  1.0
  O  O554  1  0.11633000  0.95157000  0.11491000  1.0
  O  O555  1  0.08557000  0.01846000  0.05244000  1.0
  O  O556  1  0.13353000  0.05022000  0.09124000  1.0
  O  O557  1  0.91888000  0.97717000  0.94744000  1.0
  O  O558  1  0.86406000  0.01438000  0.92207000  1.0
  O  O559  1  0.90908000  0.09189000  0.00821000  1.0
  O  O560  1  0.85796000  0.08821000  0.96089000  1.0
  O  O561  1  0.97304000  0.04591000  0.96046000  1.0
  O  O562  1  0.93943000  0.08736000  0.91370000  1.0
  O  O563  1  0.07852000  0.88866000  0.01372000  1.0
  O  O564  1  0.09628000  0.83387000  0.97414000  1.0
  O  O565  1  0.00908000  0.87017000  0.90096000  1.0
  O  O566  1  0.05072000  0.81650000  0.91953000  1.0
  O  O567  1  0.06165000  0.94227000  0.94918000  1.0
  O  O568  1  0.10029000  0.90678000  0.90230000  1.0
  O  O569  1  0.02580000  0.04774000  0.10764000  1.0
  O  O570  1  0.06798000  0.05347000  0.16361000  1.0
