# generated using pymatgen
data_CdH21C42NO5
_symmetry_space_group_name_H-M   'P 1'
_cell_length_a   27.50982856
_cell_length_b   28.56590000
_cell_length_c   37.08650000
_cell_angle_alpha   90.00100000
_cell_angle_beta   90.00007490
_cell_angle_gamma   113.82304863
_symmetry_Int_Tables_number   1
_chemical_formula_structural   CdH21C42NO5
_chemical_formula_sum   'Cd4 H84 C168 N4 O20'
_cell_volume   26661.00391231
_cell_formula_units_Z   4
loop_
 _symmetry_equiv_pos_site_id
 _symmetry_equiv_pos_as_xyz
  1  'x, y, z'
loop_
 _atom_site_type_symbol
 _atom_site_label
 _atom_site_symmetry_multiplicity
 _atom_site_fract_x
 _atom_site_fract_y
 _atom_site_fract_z
 _atom_site_occupancy
  C  C0  1  0.22202500  0.56146500  0.72131000  1.0
  C  C1  1  0.19599000  0.50689000  0.72122000  1.0
  C  C2  1  0.13964000  0.48116000  0.72116000  1.0
  C  C3  1  0.10973000  0.51135000  0.72109000  1.0
  C  C4  1  0.13443000  0.56558000  0.72107000  1.0
  C  C5  1  0.19066500  0.59051500  0.72120000  1.0
  C  C6  1  0.27868500  0.58770500  0.72159000  1.0
  C  C7  1  0.30423000  0.64215000  0.72183000  1.0
  C  C8  1  0.27164500  0.66961500  0.72154000  1.0
  C  C9  1  0.21549000  0.64465000  0.72124000  1.0
  C  C10  1  0.18383000  0.67335000  0.72106000  1.0
  C  C11  1  0.12786000  0.64944000  0.72093000  1.0
  C  C12  1  0.10366000  0.59534000  0.72097000  1.0
  C  C13  1  0.47906000  0.50252000  0.22131000  1.0
  C  C14  1  0.50509000  0.55711000  0.22121000  1.0
  C  C15  1  0.56144500  0.58283500  0.22116000  1.0
  C  C16  1  0.59137000  0.55268000  0.22110000  1.0
  C  C17  1  0.56668000  0.49844000  0.22109000  1.0
  C  C18  1  0.51044500  0.47350500  0.22121000  1.0
  C  C19  1  0.42239000  0.47623000  0.22160000  1.0
  C  C20  1  0.39687000  0.42179000  0.22184500  1.0
  C  C21  1  0.42948500  0.39436500  0.22156000  1.0
  C  C22  1  0.48563500  0.41935500  0.22125000  1.0
  C  C23  1  0.51730500  0.39066500  0.22107000  1.0
  C  C24  1  0.57327000  0.41461000  0.22095000  1.0
  C  C25  1  0.59747000  0.46871000  0.22099000  1.0
  C  C26  1  0.83975000  0.97675000  0.82194000  1.0
  C  C27  1  0.90149000  0.90060000  0.72284500  1.0
  C  C28  1  0.89798500  0.05693500  0.72620000  1.0
  C  C29  1  0.85019000  0.98449000  0.62726000  1.0
  C  C30  1  0.74205000  0.89659000  0.72573000  1.0
  C  C31  1  0.86104000  0.08418000  0.32217000  1.0
  C  C32  1  0.79955000  0.16360000  0.22347500  1.0
  C  C33  1  0.80141000  0.00714000  0.22640000  1.0
  C  C34  1  0.85266500  0.08162500  0.12773500  1.0
  C  C35  1  0.95841000  0.16814000  0.22628000  1.0
  C  C36  1  0.58293000  0.79771000  0.72690000  1.0
  C  C37  1  0.55832000  0.77576000  0.69431500  1.0
  C  C38  1  0.50262500  0.74316500  0.69289500  1.0
  C  C39  1  0.47048500  0.73156500  0.72448500  1.0
  C  C40  1  0.49634500  0.75346500  0.75739500  1.0
  C  C41  1  0.55208500  0.78602500  0.75843000  1.0
  C  C42  1  0.57624500  0.80652500  0.79153000  1.0
  C  C43  1  0.54680000  0.79601000  0.82294000  1.0
  C  C44  1  0.49286500  0.76488500  0.82215500  1.0
  C  C45  1  0.46776500  0.74372500  0.78988000  1.0
  C  C46  1  0.48054000  0.72292000  0.65932000  1.0
  C  C47  1  0.51187500  0.73405500  0.62838000  1.0
  C  C48  1  0.56571500  0.76531500  0.63006500  1.0
  C  C49  1  0.58884500  0.78594500  0.66257000  1.0
  C  C50  1  0.41185000  0.69764000  0.72323000  1.0
  C  C51  1  0.36338000  0.67092000  0.72259000  1.0
  C  C52  1  0.63970500  0.83277500  0.72783500  1.0
  C  C53  1  0.68639500  0.86186500  0.72719500  1.0
  C  C54  1  0.71738500  0.25670500  0.22006500  1.0
  C  C55  1  0.70311500  0.27307500  0.18762000  1.0
  C  C56  1  0.67457500  0.30543500  0.18765000  1.0
  C  C57  1  0.66011000  0.32209000  0.22048000  1.0
  C  C58  1  0.67501000  0.30531000  0.25309500  1.0
  C  C59  1  0.70354500  0.27298500  0.25271000  1.0
  C  C60  1  0.71793000  0.25735000  0.28550000  1.0
  C  C61  1  0.70459500  0.27261500  0.31798500  1.0
  C  C62  1  0.67678000  0.30374000  0.31861000  1.0
  C  C63  1  0.66208500  0.32004500  0.28664000  1.0
  C  C64  1  0.66119500  0.32029500  0.15429500  1.0
  C  C65  1  0.67545000  0.30411000  0.12213000  1.0
  C  C66  1  0.70327000  0.27297000  0.12235000  1.0
  C  C67  1  0.71705000  0.25757000  0.15464500  1.0
  C  C68  1  0.63032000  0.35596000  0.22068000  1.0
  C  C69  1  0.60527500  0.38333500  0.22080000  1.0
  C  C70  1  0.74629500  0.22317500  0.21996000  1.0
  C  C71  1  0.77060500  0.19596500  0.22087500  1.0
  C  C72  1  0.99292000  0.21086000  0.72208000  1.0
  C  C73  1  0.00896500  0.23792500  0.75446500  1.0
  C  C74  1  0.03937500  0.29216500  0.75446500  1.0
  C  C75  1  0.05473000  0.32009000  0.72156500  1.0
  C  C76  1  0.03872000  0.29161000  0.68892000  1.0
  C  C77  1  0.00828000  0.23734000  0.68941500  1.0
  C  C78  1  0.99341500  0.21017500  0.65676500  1.0
  C  C79  1  0.00744000  0.23536000  0.62418500  1.0
  C  C80  1  0.03657000  0.28793000  0.62336500  1.0
  C  C81  1  0.05218000  0.31592000  0.65524500  1.0
  C  C82  1  0.05347000  0.31705000  0.78792000  1.0
  C  C83  1  0.03848000  0.28960000  0.82005000  1.0
  C  C84  1  0.00938000  0.23702000  0.81972000  1.0
  C  C85  1  0.99478000  0.21132000  0.78739000  1.0
  C  C86  1  0.08642000  0.37709000  0.72132000  1.0
  C  C87  1  0.11176500  0.42410500  0.72125000  1.0
  C  C88  1  0.95929000  0.15595000  0.72250500  1.0
  C  C89  1  0.93091000  0.11082000  0.72381000  1.0
  C  C90  1  0.11801500  0.26617500  0.22703000  1.0
  C  C91  1  0.14851500  0.27951500  0.25871000  1.0
  C  C92  1  0.20428000  0.31204000  0.25762500  1.0
  C  C93  1  0.23057000  0.33224000  0.22451000  1.0
  C  C94  1  0.19888000  0.31878000  0.19271500  1.0
  C  C95  1  0.14315000  0.28621000  0.19418000  1.0
  C  C96  1  0.11316000  0.27408000  0.16218000  1.0
  C  C97  1  0.13681000  0.29277000  0.12942000  1.0
  C  C98  1  0.19065500  0.32399500  0.12772500  1.0
  C  C99  1  0.22149000  0.33703000  0.15889500  1.0
  C  C100  1  0.23246500  0.32344500  0.29028500  1.0
  C  C101  1  0.20698500  0.30386500  0.32275000  1.0
  C  C102  1  0.15306000  0.27272000  0.32356500  1.0
  C  C103  1  0.12399000  0.26063000  0.29200000  1.0
  C  C104  1  0.28922500  0.36618500  0.22324000  1.0
  C  C105  1  0.33769000  0.39299000  0.22261000  1.0
  C  C106  1  0.06107500  0.23141500  0.22806500  1.0
  C  C107  1  0.01425000  0.20258000  0.22784000  1.0
  C  C108  1  0.98367000  0.80738000  0.72008000  1.0
  C  C109  1  0.99780000  0.79084000  0.68764000  1.0
  C  C110  1  0.02633000  0.75847000  0.68766000  1.0
  C  C111  1  0.04095000  0.74193000  0.72048000  1.0
  C  C112  1  0.02617000  0.75883000  0.75310000  1.0
  C  C113  1  0.99763500  0.79119500  0.75272000  1.0
  C  C114  1  0.98340000  0.80694000  0.78552000  1.0
  C  C115  1  0.99689000  0.79178000  0.81800000  1.0
  C  C116  1  0.02471000  0.76065000  0.81861000  1.0
  C  C117  1  0.03925000  0.74423000  0.78664000  1.0
  C  C118  1  0.03958000  0.74348000  0.65431000  1.0
  C  C119  1  0.02521000  0.75955000  0.62214000  1.0
  C  C120  1  0.99740000  0.79070000  0.62236000  1.0
  C  C121  1  0.98373000  0.80623000  0.65466000  1.0
  C  C122  1  0.07078000  0.70810000  0.72068000  1.0
  C  C123  1  0.09588000  0.68076000  0.72079000  1.0
  C  C124  1  0.95480500  0.84098500  0.71994000  1.0
  C  C125  1  0.93050500  0.86822500  0.72062500  1.0
  C  C126  1  0.70819000  0.85303000  0.22213500  1.0
  C  C127  1  0.69348000  0.82650000  0.18944000  1.0
  C  C128  1  0.66307500  0.77224500  0.18893500  1.0
  C  C129  1  0.64650500  0.74385500  0.22156500  1.0
  C  C130  1  0.66146000  0.77183000  0.25447500  1.0
  C  C131  1  0.69184000  0.82604000  0.25449000  1.0
  C  C132  1  0.70573500  0.85271500  0.28741500  1.0
  C  C133  1  0.69089500  0.82708500  0.31973500  1.0
  C  C134  1  0.66179500  0.77450500  0.32006500  1.0
  C  C135  1  0.64708000  0.74701000  0.28793000  1.0
  C  C136  1  0.65029500  0.74782500  0.15525500  1.0
  C  C137  1  0.66655500  0.77571500  0.12338500  1.0
  C  C138  1  0.69565500  0.82829500  0.12421000  1.0
  C  C139  1  0.70899000  0.85358000  0.15679500  1.0
  C  C140  1  0.61474000  0.68688000  0.22133000  1.0
  C  C141  1  0.58933500  0.63988500  0.22125000  1.0
  C  C142  1  0.74122500  0.90800500  0.22265500  1.0
  C  C143  1  0.76880000  0.95327000  0.22428000  1.0
  C  C144  1  0.83506000  0.98540000  0.85989000  1.0
  C  C145  1  0.85921500  0.96369500  0.88367000  1.0
  C  C146  1  0.85407000  0.96843000  0.91996000  1.0
  C  C147  1  0.80699000  0.01323000  0.87296000  1.0
  C  C148  1  0.80275000  0.01721000  0.91004000  1.0
  C  C149  1  0.82310000  0.99970000  0.97103000  1.0
  C  C150  1  0.85105000  0.06735000  0.09077000  1.0
  C  C151  1  0.83678000  0.08328000  0.02968500  1.0
  C  C152  1  0.88387000  0.03157000  0.04355000  1.0
  C  C153  1  0.87012000  0.04812000  0.98134000  1.0
  C  C154  1  0.82907000  0.08927000  0.06578500  1.0
  C  C155  1  0.87749000  0.03716000  0.07995000  1.0
  C  C156  1  0.85197000  0.00102000  0.59078000  1.0
  C  C157  1  0.86003500  0.05139500  0.58300000  1.0
  C  C158  1  0.85492000  0.06404000  0.54760500  1.0
  C  C159  1  0.84040000  0.96459000  0.56379000  1.0
  C  C160  1  0.83630000  0.97876000  0.52888000  1.0
  C  C161  1  0.83983000  0.04133000  0.48434000  1.0
  C  C162  1  0.87170500  0.07582500  0.35909000  1.0
  C  C163  1  0.88071000  0.02321000  0.40653000  1.0
  C  C164  1  0.89104500  0.10844500  0.41896000  1.0
  C  C165  1  0.89446000  0.05500000  0.46808000  1.0
  C  C166  1  0.87209500  0.02932500  0.37035000  1.0
  C  C167  1  0.88156000  0.11560000  0.38346500  1.0
  Cd  Cd168  1  0.84912500  0.95836500  0.76152000  1.0
  Cd  Cd169  1  0.84314500  0.96121500  0.68841500  1.0
  Cd  Cd170  1  0.85079500  0.10544500  0.26243500  1.0
  Cd  Cd171  1  0.85823000  0.10279000  0.18912500  1.0
  H  H172  1  0.21960500  0.48440500  0.72124500  1.0
  H  H173  1  0.06678000  0.49245000  0.72106000  1.0
  H  H174  1  0.30281500  0.56578500  0.72169000  1.0
  H  H175  1  0.29015500  0.71103500  0.72162000  1.0
  H  H176  1  0.20299000  0.71471000  0.72104000  1.0
  H  H177  1  0.06074000  0.57624000  0.72092000  1.0
  H  H178  1  0.48147500  0.57957500  0.22121500  1.0
  H  H179  1  0.63431500  0.57156500  0.22108000  1.0
  H  H180  1  0.39825000  0.49817000  0.22169000  1.0
  H  H181  1  0.41100000  0.35295000  0.22164000  1.0
  H  H182  1  0.49818500  0.34932500  0.22105000  1.0
  H  H183  1  0.64040000  0.48784000  0.22095000  1.0
  H  H184  1  0.61818500  0.83079500  0.79358000  1.0
  H  H185  1  0.56630000  0.81232000  0.84794500  1.0
  H  H186  1  0.47027500  0.75699500  0.84678000  1.0
  H  H187  1  0.42583000  0.71967000  0.79066000  1.0
  H  H188  1  0.43895000  0.69835000  0.65668000  1.0
  H  H189  1  0.49429000  0.71825000  0.60286500  1.0
  H  H190  1  0.59010000  0.77388000  0.60616500  1.0
  H  H191  1  0.63098500  0.80982500  0.66243000  1.0
  H  H192  1  0.73968000  0.23318000  0.28650500  1.0
  H  H193  1  0.71608000  0.25998000  0.34270000  1.0
  H  H194  1  0.66653500  0.31537500  0.34408000  1.0
  H  H195  1  0.64053000  0.34421000  0.28851000  1.0
  H  H196  1  0.63962000  0.34448000  0.15274000  1.0
  H  H197  1  0.66485000  0.31585000  0.09681000  1.0
  H  H198  1  0.71441000  0.26046000  0.09746000  1.0
  H  H199  1  0.73878000  0.23338000  0.15339000  1.0
  H  H200  1  0.97088500  0.16912500  0.65596500  1.0
  H  H201  1  0.99539000  0.21355000  0.59957500  1.0
  H  H202  1  0.04720500  0.30716500  0.59778500  1.0
  H  H203  1  0.07479500  0.35665500  0.65323000  1.0
  H  H204  1  0.07609500  0.35781500  0.78955500  1.0
  H  H205  1  0.04955500  0.30920500  0.84546000  1.0
  H  H206  1  0.99777000  0.21557000  0.84450500  1.0
  H  H207  1  0.97232000  0.17030000  0.78864500  1.0
  H  H208  1  0.07105000  0.25005000  0.16202000  1.0
  H  H209  1  0.11284000  0.28268000  0.10532500  1.0
  H  H210  1  0.20866500  0.33826500  0.10202000  1.0
  H  H211  1  0.26312500  0.36146500  0.15622000  1.0
  H  H212  1  0.27438500  0.34752500  0.29105000  1.0
  H  H213  1  0.22928500  0.31297500  0.34750000  1.0
  H  H214  1  0.13328000  0.25760000  0.34871000  1.0
  H  H215  1  0.08206000  0.23634000  0.29407000  1.0
  H  H216  1  0.96166000  0.83112000  0.78652000  1.0
  H  H217  1  0.98554000  0.80452000  0.84272000  1.0
  H  H218  1  0.03509000  0.74913000  0.84407000  1.0
  H  H219  1  0.06080000  0.72006000  0.78850000  1.0
  H  H220  1  0.06114000  0.71930000  0.65276000  1.0
  H  H221  1  0.03573000  0.74775000  0.59683000  1.0
  H  H222  1  0.98618000  0.80314000  0.59747000  1.0
  H  H223  1  0.96200000  0.83042000  0.65339000  1.0
  H  H224  1  0.72826000  0.89374000  0.28868500  1.0
  H  H225  1  0.70233500  0.84856500  0.34452000  1.0
  H  H226  1  0.65054000  0.75493000  0.34547500  1.0
  H  H227  1  0.62450000  0.70624000  0.28957500  1.0
  H  H228  1  0.62779000  0.70707000  0.15324500  1.0
  H  H229  1  0.65650000  0.75642000  0.09781000  1.0
  H  H230  1  0.70825500  0.85001500  0.09961000  1.0
  H  H231  1  0.73159000  0.89462000  0.15600500  1.0
  H  H232  1  0.88185000  0.94271000  0.87442000  1.0
  H  H233  1  0.87407000  0.95227000  0.93804000  1.0
  H  H234  1  0.78834000  0.03116000  0.85518000  1.0
  H  H235  1  0.78230000  0.03962000  0.92080000  1.0
  H  H236  1  0.82550000  0.96642000  0.98535000  1.0
  H  H237  1  0.78497000  0.00147000  0.97902000  1.0
  H  H238  1  0.80859000  0.11277000  0.07409000  1.0
  H  H239  1  0.82004000  0.10052000  0.00998500  1.0
  H  H240  1  0.87036000  0.08124000  0.96544000  1.0
  H  H241  1  0.90816000  0.04452000  0.97560000  1.0
  H  H242  1  0.90360000  0.00750000  0.03472500  1.0
  H  H243  1  0.89363000  0.01888000  0.09931000  1.0
  H  H244  1  0.86831000  0.08001000  0.60395000  1.0
  H  H245  1  0.86124000  0.10306000  0.54105000  1.0
  H  H246  1  0.83442000  0.92560000  0.56977000  1.0
  H  H247  1  0.82901000  0.95079000  0.50760000  1.0
  H  H248  1  0.82793000  0.07409000  0.48232000  1.0
  H  H249  1  0.80940000  0.00878000  0.46951000  1.0
  H  H250  1  0.86450000  0.99784000  0.35184000  1.0
  H  H251  1  0.87810000  0.98636000  0.41600000  1.0
  H  H252  1  0.90857000  0.02415000  0.47291000  1.0
  H  H253  1  0.92364000  0.09038000  0.48090000  1.0
  H  H254  1  0.89692000  0.13898000  0.43801000  1.0
  H  H255  1  0.88215000  0.15209000  0.37514000  1.0
  N  N256  1  0.82479000  0.99339000  0.93260000  1.0
  N  N257  1  0.86551000  0.05637000  0.01926000  1.0
  N  N258  1  0.84184000  0.02736000  0.52150000  1.0
  N  N259  1  0.89090000  0.06296000  0.42991000  1.0
  O  O260  1  0.86216000  0.94634000  0.81152500  1.0
  O  O261  1  0.82228500  0.99761500  0.79640000  1.0
  O  O262  1  0.88820500  0.91786500  0.69320000  1.0
  O  O263  1  0.88790000  0.91157000  0.75457000  1.0
  O  O264  1  0.90764000  0.02867000  0.75016500  1.0
  O  O265  1  0.85921000  0.03512000  0.70355500  1.0
  O  O266  1  0.76970000  0.91100000  0.75534500  1.0
  O  O267  1  0.76467000  0.91321000  0.69461000  1.0
  O  O268  1  0.89157000  0.00191000  0.64838500  1.0
  O  O269  1  0.80637000  0.95082000  0.64093500  1.0
  O  O270  1  0.84132000  0.11766000  0.31395000  1.0
  O  O271  1  0.87396500  0.06195500  0.29520500  1.0
  O  O272  1  0.81453000  0.14749000  0.19395500  1.0
  O  O273  1  0.81128000  0.15144000  0.25541500  1.0
  O  O274  1  0.79173500  0.03564500  0.25032000  1.0
  O  O275  1  0.83995500  0.02856500  0.20373500  1.0
  O  O276  1  0.93100000  0.15218000  0.25590500  1.0
  O  O277  1  0.93546000  0.15322000  0.19504500  1.0
  O  O278  1  0.80976500  0.07307500  0.14652000  1.0
  O  O279  1  0.89804500  0.10561500  0.14392500  1.0
