# generated using pymatgen
data_Cd3H16(C4O3)8
_symmetry_space_group_name_H-M   'P 1'
_cell_length_a   11.00223333
_cell_length_b   11.11131709
_cell_length_c   11.47257500
_cell_angle_alpha   91.80349082
_cell_angle_beta   99.17100000
_cell_angle_gamma   108.49604398
_symmetry_Int_Tables_number   1
_chemical_formula_structural   Cd3H16(C4O3)8
_chemical_formula_sum   'Cd3 H16 C32 O24'
_cell_volume   1308.01571227
_cell_formula_units_Z   1
loop_
 _symmetry_equiv_pos_site_id
 _symmetry_equiv_pos_as_xyz
  1  'x, y, z'
loop_
 _atom_site_type_symbol
 _atom_site_label
 _atom_site_symmetry_multiplicity
 _atom_site_fract_x
 _atom_site_fract_y
 _atom_site_fract_z
 _atom_site_occupancy
  C  C0  1  0.10461000  0.40879000  0.25903000  1.0
  C  C1  1  0.12285000  0.31787000  0.91163000  1.0
  C  C2  1  0.89746000  0.72070000  0.86166000  1.0
  C  C3  1  0.26314000  0.99407000  0.97563000  1.0
  C  C4  1  0.81353000  0.16751000  0.02755000  1.0
  C  C5  1  0.96635000  0.02090333  0.68761000  1.0
  C  C6  1  0.15652000  0.75877000  0.66425000  1.0
  C  C7  1  0.03137333  0.01449000  0.19989000  1.0
  C  C8  1  0.12442000  0.49933333  0.36373333  1.0
  C  C9  1  0.22423000  0.51678000  0.46314000  1.0
  C  C10  1  0.03585000  0.56585000  0.36581000  1.0
  C  C11  1  0.14546000  0.66773000  0.56253000  1.0
  C  C12  1  0.04194000  0.64489000  0.46477000  1.0
  C  C13  1  0.23433000  0.60081000  0.56161000  1.0
  C  C14  1  0.00242000  0.01012000  0.32376000  1.0
  C  C15  1  0.88806000  0.92835000  0.35691000  1.0
  C  C16  1  0.08848000  0.10418000  0.40954000  1.0
  C  C17  1  0.95149000  0.03786000  0.55850000  1.0
  C  C18  1  0.06097000  0.12470000  0.52102000  1.0
  C  C19  1  0.86441000  0.94106000  0.47426000  1.0
  C  C20  1  0.07306000  0.42658333  0.88698333  1.0
  C  C21  1  0.96365000  0.41389000  0.79841000  1.0
  C  C22  1  0.11321000  0.53099000  0.97307000  1.0
  C  C23  1  0.93687000  0.60600000  0.88560000  1.0
  C  C24  1  0.03976000  0.61303000  0.97959000  1.0
  C  C25  1  0.89879000  0.50438000  0.79674000  1.0
  C  C26  1  0.67278000  0.13126000  0.02186000  1.0
  C  C27  1  0.61021000  0.04899000  0.10003000  1.0
  C  C28  1  0.60182000  0.18877000  0.94361000  1.0
  C  C29  1  0.40230000  0.06720000  0.00908000  1.0
  C  C30  1  0.46751000  0.15875000  0.93647000  1.0
  C  C31  1  0.47589000  0.01676000  0.09284000  1.0
  Cd  Cd32  1  0.08838000  0.87347000  0.81987000  1.0
  Cd  Cd33  1  0.05143000  0.24514000  0.08502000  1.0
  Cd  Cd34  1  0.97698000  0.01208000  0.93372000  1.0
  H  H35  1  0.38456000  0.50808000  0.43064000  1.0
  H  H36  1  0.95619000  0.55162000  0.29210000  1.0
  H  H37  1  0.92366000  0.69837000  0.54557000  1.0
  H  H38  1  0.31221000  0.61442000  0.63674000  1.0
  H  H39  1  0.83125000  0.76068000  0.28116000  1.0
  H  H40  1  0.18024000  0.16502000  0.39074000  1.0
  H  H41  1  0.11535000  0.24248000  0.66392000  1.0
  H  H42  1  0.78281000  0.87049000  0.50117000  1.0
  H  H43  1  0.95981000  0.34463000  0.64487000  1.0
  H  H44  1  0.19592000  0.54318000  0.04302000  1.0
  H  H45  1  0.14325000  0.69455000  0.13343000  1.0
  H  H46  1  0.82069000  0.49722000  0.72342000  1.0
  H  H47  1  0.70580000  0.06090000  0.25434000  1.0
  H  H48  1  0.65067000  0.25559000  0.88551000  1.0
  H  H49  1  0.33025000  0.22705000  0.88069000  1.0
  H  H50  1  0.42788000  0.94618000  0.14842000  1.0
  O  O51  1  0.16205000  0.32363000  0.25315000  1.0
  O  O52  1  0.01945000  0.40081000  0.16413000  1.0
  O  O53  1  0.20807000  0.33568000  0.00788000  1.0
  O  O54  1  0.03077333  0.20821000  0.90429000  1.0
  O  O55  1  0.96003000  0.82075000  0.93427000  1.0
  O  O56  1  0.89864000  0.75123000  0.75451000  1.0
  O  O57  1  0.12484000  0.86125000  0.64941000  1.0
  O  O58  1  0.16443000  0.72990000  0.77394000  1.0
  O  O59  1  0.11792000  0.11808000  0.17828000  1.0
  O  O60  1  0.94487000  0.95302000  0.10646000  1.0
  O  O61  1  0.23586000  0.87338000  0.94362000  1.0
  O  O62  1  0.17636000  0.04573000  0.92825000  1.0
  O  O63  1  0.87957000  0.08776000  0.04568000  1.0
  O  O64  1  0.88408000  0.28712000  0.04744000  1.0
  O  O65  1  0.08277000  0.02314000  0.73450000  1.0
  O  O66  1  0.87464000  0.98459000  0.75399000  1.0
  O  O67  1  0.94091000  0.69289000  0.46401000  1.0
  O  O68  1  0.31197000  0.45228000  0.46532000  1.0
  O  O69  1  0.15200000  0.22434000  0.59478000  1.0
  O  O70  1  0.80003000  0.83500000  0.27656000  1.0
  O  O71  1  0.06937000  0.70228000  0.07564000  1.0
  O  O72  1  0.91815000  0.31296000  0.71348000  1.0
  O  O73  1  0.40394000  0.21244000  0.85068000  1.0
  O  O74  1  0.67926000  0.99900000  0.18332000  1.0
