# generated using pymatgen
data_Zn4H12C30O13F12
_symmetry_space_group_name_H-M   'P 1'
_cell_length_a   13.13480000
_cell_length_b   24.32143238
_cell_length_c   24.32180000
_cell_angle_alpha   119.99950000
_cell_angle_beta   90.00000000
_cell_angle_gamma   90.00000000
_symmetry_Int_Tables_number   1
_chemical_formula_structural   Zn4H12C30O13F12
_chemical_formula_sum   'Zn12 H36 C90 O39 F36'
_cell_volume   6728.85462342
_cell_formula_units_Z   3
loop_
 _symmetry_equiv_pos_site_id
 _symmetry_equiv_pos_as_xyz
  1  'x, y, z'
loop_
 _atom_site_type_symbol
 _atom_site_label
 _atom_site_symmetry_multiplicity
 _atom_site_fract_x
 _atom_site_fract_y
 _atom_site_fract_z
 _atom_site_occupancy
  C  C0  1  0.80808000  0.71744000  0.37140000  1.0
  C  C1  1  0.13546000  0.85818000  0.40442000  1.0
  C  C2  1  0.83686000  0.90539000  0.35263000  1.0
  C  C3  1  0.91356000  0.02152000  0.58617000  1.0
  C  C4  1  0.02238000  0.80926000  0.55123000  1.0
  C  C5  1  0.65952000  0.89179000  0.53439000  1.0
  C  C6  1  0.78062000  0.20989000  0.35519000  1.0
  C  C7  1  0.96432000  0.30612000  0.55342000  1.0
  C  C8  1  0.15622000  0.28812000  0.38514000  1.0
  C  C9  1  0.98878000  0.50175000  0.55036000  1.0
  C  C10  1  0.67818000  0.41399000  0.49146000  1.0
  C  C11  1  0.92854000  0.37720000  0.31662000  1.0
  C  C12  1  0.36472000  0.40970000  0.96436000  1.0
  C  C13  1  0.63456000  0.38283000  0.82392000  1.0
  C  C14  1  0.74238000  0.49548000  0.02851000  1.0
  C  C15  1  0.84048000  0.28123000  0.93560000  1.0
  C  C16  1  0.55078000  0.20074000  0.84493000  1.0
  C  C17  1  0.55230000  0.36161000  0.08812000  1.0
  C  C18  1  0.23946000  0.85457000  0.37777000  1.0
  C  C19  1  0.31916000  0.86875000  0.42792000  1.0
  C  C20  1  0.35456000  0.82026000  0.43854000  1.0
  C  C21  1  0.43070000  0.83267000  0.48348000  1.0
  C  C22  1  0.55706000  0.90662000  0.56593000  1.0
  C  C23  1  0.47248000  0.89386000  0.51889000  1.0
  C  C24  1  0.36014000  0.93017000  0.46390000  1.0
  C  C25  1  0.43632000  0.94254000  0.50880000  1.0
  C  C26  1  0.57496000  0.44244000  0.51327000  1.0
  C  C27  1  0.49512000  0.39475000  0.47280000  1.0
  C  C28  1  0.45732000  0.39372000  0.41818000  1.0
  C  C29  1  0.38200000  0.35022000  0.38133000  1.0
  C  C30  1  0.25974000  0.26123000  0.35974000  1.0
  C  C31  1  0.34378000  0.30664000  0.39813000  1.0
  C  C32  1  0.45758000  0.35068000  0.48919000  1.0
  C  C33  1  0.38244000  0.30711000  0.45225000  1.0
  C  C34  1  0.94032000  0.24929000  0.93059000  1.0
  C  C35  1  0.02666000  0.29437000  0.94059000  1.0
  C  C36  1  0.06290000  0.33604000  0.00212000  1.0
  C  C37  1  0.13950000  0.37995000  0.01183000  1.0
  C  C38  1  0.25784000  0.43386000  0.97122000  1.0
  C  C39  1  0.18058000  0.38337000  0.96023000  1.0
  C  C40  1  0.06920000  0.29693000  0.88882000  1.0
  C  C41  1  0.14538000  0.34104000  0.89859000  1.0
  C  C42  1  0.76558000  0.65166000  0.33661000  1.0
  C  C43  1  0.77450000  0.62619000  0.26614000  1.0
  C  C44  1  0.85630000  0.58668000  0.23138000  1.0
  C  C45  1  0.86452000  0.56380000  0.16617000  1.0
  C  C46  1  0.80090000  0.55606000  0.06438000  1.0
  C  C47  1  0.79202000  0.58077000  0.13476000  1.0
  C  C48  1  0.70162000  0.64271000  0.23458000  1.0
  C  C49  1  0.71036000  0.62033000  0.16955000  1.0
  C  C50  1  0.71452000  0.15329000  0.31605000  1.0
  C  C51  1  0.75044000  0.09562000  0.31900000  1.0
  C  C52  1  0.83920000  0.06332000  0.28660000  1.0
  C  C53  1  0.86574000  0.00543000  0.28195000  1.0
  C  C54  1  0.82174000  0.91053000  0.29427000  1.0
  C  C55  1  0.80338000  0.97807000  0.30899000  1.0
  C  C56  1  0.69100000  0.06997000  0.34894000  1.0
  C  C57  1  0.71674000  0.01157000  0.34352000  1.0
  C  C58  1  0.93696000  0.38996000  0.26276000  1.0
  C  C59  1  0.83274000  0.38370000  0.23412000  1.0
  C  C60  1  0.77060000  0.43739000  0.25355000  1.0
  C  C61  1  0.67394000  0.43141000  0.22705000  1.0
  C  C62  1  0.53472000  0.36484000  0.15034000  1.0
  C  C63  1  0.63680000  0.37136000  0.18154000  1.0
  C  C64  1  0.79544000  0.32369000  0.18886000  1.0
  C  C65  1  0.69832000  0.31754000  0.16300000  1.0
  C  C66  1  0.90890000  0.08984000  0.63731000  1.0
  C  C67  1  0.81558000  0.10156000  0.67804000  1.0
  C  C68  1  0.82204000  0.10068000  0.73531000  1.0
  C  C69  1  0.73494000  0.10958000  0.77183000  1.0
  C  C70  1  0.54702000  0.13282000  0.79346000  1.0
  C  C71  1  0.63966000  0.11960000  0.75187000  1.0
  C  C72  1  0.72028000  0.11103000  0.65778000  1.0
  C  C73  1  0.63318000  0.12033000  0.69449000  1.0
  C  C74  1  0.08860000  0.79130000  0.58990000  1.0
  C  C75  1  0.05770000  0.72832000  0.58334000  1.0
  C  C76  1  0.96778000  0.72375000  0.61220000  1.0
  C  C77  1  0.94718000  0.66924000  0.61590000  1.0
  C  C78  1  0.00642000  0.56591000  0.60734000  1.0
  C  C79  1  0.01672000  0.61836000  0.59137000  1.0
  C  C80  1  0.12360000  0.67563000  0.55486000  1.0
  C  C81  1  0.10356000  0.62136000  0.55916000  1.0
  C  C82  1  0.64184000  0.40154000  0.77415000  1.0
  C  C83  1  0.73328000  0.37049000  0.73239000  1.0
  C  C84  1  0.72850000  0.30664000  0.68388000  1.0
  C  C85  1  0.81154000  0.27821000  0.64353000  1.0
  C  C86  1  0.98408000  0.28623000  0.60166000  1.0
  C  C87  1  0.90098000  0.31316000  0.65114000  1.0
  C  C88  1  0.82410000  0.40467000  0.74155000  1.0
  C  C89  1  0.90706000  0.37630000  0.70112000  1.0
  F  F90  1  0.31568000  0.76070000  0.40498000  1.0
  F  F91  1  0.46472000  0.78468000  0.49191000  1.0
  F  F92  1  0.47590000  0.00196000  0.54188000  1.0
  F  F93  1  0.32688000  0.97815000  0.45525000  1.0
  F  F94  1  0.49318000  0.43507000  0.40066000  1.0
  F  F95  1  0.34540000  0.35113000  0.32959000  1.0
  F  F96  1  0.34618000  0.26588000  0.46982000  1.0
  F  F97  1  0.49352000  0.35004000  0.54120000  1.0
  F  F98  1  0.02256000  0.33504000  0.05301000  1.0
  F  F99  1  0.17240000  0.41994000  0.07183000  1.0
  F  F100  1  0.18382000  0.34311000  0.84782000  1.0
  F  F101  1  0.03522000  0.25765000  0.82891000  1.0
  F  F102  1  0.92872000  0.57062000  0.26065000  1.0
  F  F103  1  0.94340000  0.52501000  0.13362000  1.0
  F  F104  1  0.63872000  0.63708000  0.14040000  1.0
  F  F105  1  0.62222000  0.68106000  0.26701000  1.0
  F  F106  1  0.89802000  0.08651000  0.25693000  1.0
  F  F107  1  0.95008000  0.97472000  0.24833000  1.0
  F  F108  1  0.65440000  0.98630000  0.36966000  1.0
  F  F109  1  0.60532000  0.10006000  0.38119000  1.0
  F  F110  1  0.80332000  0.49564000  0.29855000  1.0
  F  F111  1  0.61702000  0.48438000  0.24544000  1.0
  F  F112  1  0.66472000  0.25900000  0.11902000  1.0
  F  F113  1  0.85314000  0.27090000  0.16990000  1.0
  F  F114  1  0.91270000  0.09070000  0.75568000  1.0
  F  F115  1  0.74372000  0.10915000  0.82722000  1.0
  F  F116  1  0.54264000  0.13057000  0.67421000  1.0
  F  F117  1  0.71154000  0.11076000  0.60203000  1.0
  F  F118  1  0.90244000  0.77358000  0.63988000  1.0
  F  F119  1  0.86184000  0.66776000  0.64661000  1.0
  F  F120  1  0.17190000  0.57301000  0.53492000  1.0
  F  F121  1  0.21036000  0.67786000  0.52568000  1.0
  F  F122  1  0.64246000  0.27220000  0.67489000  1.0
  F  F123  1  0.80300000  0.21743000  0.59519000  1.0
  F  F124  1  0.99210000  0.41127000  0.70914000  1.0
  F  F125  1  0.83184000  0.46596000  0.78894000  1.0
  H  H126  1  0.25170000  0.80631000  0.33634000  1.0
  H  H127  1  0.55738000  0.95731000  0.60392000  1.0
  H  H128  1  0.54662000  0.87800000  0.58960000  1.0
  H  H129  1  0.24394000  0.88968000  0.36132000  1.0
  H  H130  1  0.56516000  0.45548000  0.56376000  1.0
  H  H131  1  0.26334000  0.24897000  0.30921000  1.0
  H  H132  1  0.26724000  0.21582000  0.35993000  1.0
  H  H133  1  0.56876000  0.48605000  0.50956000  1.0
  H  H134  1  0.94324000  0.23326000  0.96609000  1.0
  H  H135  1  0.24696000  0.44914000  0.93553000  1.0
  H  H136  1  0.24816000  0.47649000  0.01897000  1.0
  H  H137  1  0.94520000  0.20677000  0.88244000  1.0
  H  H138  1  0.80856000  0.62141000  0.35080000  1.0
  H  H139  1  0.76812000  0.59106000  0.05265000  1.0
  H  H140  1  0.88188000  0.54795000  0.04902000  1.0
  H  H141  1  0.68422000  0.65286000  0.34979000  1.0
  H  H142  1  0.63460000  0.16540000  0.33276000  1.0
  H  H143  1  0.75484000  0.88128000  0.26767000  1.0
  H  H144  1  0.88978000  0.88987000  0.26362000  1.0
  H  H145  1  0.71804000  0.14217000  0.26584000  1.0
  H  H146  1  0.96754000  0.43862000  0.28081000  1.0
  H  H147  1  0.49684000  0.32039000  0.14185000  1.0
  H  H148  1  0.48488000  0.40602000  0.18047000  1.0
  H  H149  1  0.99008000  0.35503000  0.22653000  1.0
  H  H150  1  0.97938000  0.10100000  0.66619000  1.0
  H  H151  1  0.47582000  0.12429000  0.76565000  1.0
  H  H152  1  0.54790000  0.10183000  0.81496000  1.0
  H  H153  1  0.90770000  0.12042000  0.61534000  1.0
  H  H154  1  0.16892000  0.78997000  0.57499000  1.0
  H  H155  1  0.07714000  0.56423000  0.63160000  1.0
  H  H156  1  0.94236000  0.57558000  0.64076000  1.0
  H  H157  1  0.08192000  0.82863000  0.64069000  1.0
  H  H158  1  0.57100000  0.38717000  0.74522000  1.0
  H  H159  1  0.06022000  0.30344000  0.62353000  1.0
  H  H160  1  0.98394000  0.23354000  0.57701000  1.0
  H  H161  1  0.64772000  0.45408000  0.79837000  1.0
  O  O162  1  0.89760000  0.86736000  0.46672000  1.0
  O  O163  1  0.74582000  0.76599000  0.39147000  1.0
  O  O164  1  0.08202000  0.80591000  0.38464000  1.0
  O  O165  1  0.91582000  0.93297000  0.38935000  1.0
  O  O166  1  0.90678000  0.72505000  0.38095000  1.0
  O  O167  1  0.77522000  0.86891000  0.36282000  1.0
  O  O168  1  0.09786000  0.91373000  0.44611000  1.0
  O  O169  1  0.88894000  0.97735000  0.59989000  1.0
  O  O170  1  0.04240000  0.78542000  0.49066000  1.0
  O  O171  1  0.94140000  0.00742000  0.52872000  1.0
  O  O172  1  0.95136000  0.85242000  0.57987000  1.0
  O  O173  1  0.73590000  0.87886000  0.56096000  1.0
  O  O174  1  0.67332000  0.89360000  0.48184000  1.0
  O  O175  1  0.91668000  0.34899000  0.44122000  1.0
  O  O176  1  0.85822000  0.22114000  0.32824000  1.0
  O  O177  1  0.87130000  0.30165000  0.53190000  1.0
  O  O178  1  0.14676000  0.34285000  0.43796000  1.0
  O  O179  1  0.75604000  0.24895000  0.41454000  1.0
  O  O180  1  0.07568000  0.25565000  0.35384000  1.0
  O  O181  1  0.03842000  0.33060000  0.53634000  1.0
  O  O182  1  0.91206000  0.49316000  0.51233000  1.0
  O  O183  1  0.71804000  0.37970000  0.51388000  1.0
  O  O184  1  0.04410000  0.45393000  0.54388000  1.0
  O  O185  1  0.72796000  0.42398000  0.45050000  1.0
  O  O186  1  0.89964000  0.42332000  0.37240000  1.0
  O  O187  1  0.94592000  0.31955000  0.30611000  1.0
  O  O188  1  0.61104000  0.35539000  0.94791000  1.0
  O  O189  1  0.43360000  0.44633000  0.00566000  1.0
  O  O190  1  0.54620000  0.36522000  0.83507000  1.0
  O  O191  1  0.78932000  0.44442000  0.98528000  1.0
  O  O192  1  0.38968000  0.35503000  0.91481000  1.0
  O  O193  1  0.64490000  0.49487000  0.04025000  1.0
  O  O194  1  0.71680000  0.38433000  0.85529000  1.0
  O  O195  1  0.76976000  0.28155000  0.97388000  1.0
  O  O196  1  0.52104000  0.24475000  0.83232000  1.0
  O  O197  1  0.82444000  0.30838000  0.90141000  1.0
  O  O198  1  0.59236000  0.21502000  0.89959000  1.0
  O  O199  1  0.57186000  0.30629000  0.03797000  1.0
  O  O200  1  0.55638000  0.41457000  0.08617000  1.0
  Zn  Zn201  1  0.77788000  0.85045000  0.42726000  1.0
  Zn  Zn202  1  0.97784000  0.79855000  0.43112000  1.0
  Zn  Zn203  1  0.96026000  0.92855000  0.45903000  1.0
  Zn  Zn204  1  0.87034000  0.89158000  0.54798000  1.0
  Zn  Zn205  1  0.94702000  0.28853000  0.36128000  1.0
  Zn  Zn206  1  0.82048000  0.32148000  0.47434000  1.0
  Zn  Zn207  1  0.03174000  0.36865000  0.48730000  1.0
  Zn  Zn208  1  0.86710000  0.41898000  0.44322000  1.0
  Zn  Zn209  1  0.56378000  0.42509000  0.01643000  1.0
  Zn  Zn210  1  0.51998000  0.33076000  0.88546000  1.0
  Zn  Zn211  1  0.73004000  0.37143000  0.92285000  1.0
  Zn  Zn212  1  0.63322000  0.29267000  0.96476000  1.0
