# generated using pymatgen
data_Eu2H18(C14O5)3
_symmetry_space_group_name_H-M   'P 1'
_cell_length_a   23.89540000
_cell_length_b   24.80660000
_cell_length_c   27.99850000
_cell_angle_alpha   90.82400000
_cell_angle_beta   91.35300000
_cell_angle_gamma   91.74400000
_symmetry_Int_Tables_number   1
_chemical_formula_structural   Eu2H18(C14O5)3
_chemical_formula_sum   'Eu8 H72 C168 O60'
_cell_volume   16582.28617350
_cell_formula_units_Z   4
loop_
 _symmetry_equiv_pos_site_id
 _symmetry_equiv_pos_as_xyz
  1  'x, y, z'
loop_
 _atom_site_type_symbol
 _atom_site_label
 _atom_site_symmetry_multiplicity
 _atom_site_fract_x
 _atom_site_fract_y
 _atom_site_fract_z
 _atom_site_occupancy
  Eu  Eu0  1  0.63229000  0.45770000  0.58557000  1.0
  Eu  Eu1  1  0.58051000  0.41003000  0.64083000  1.0
  Eu  Eu2  1  0.08926000  0.15629000  0.35744000  1.0
  Eu  Eu3  1  0.15615000  0.08549000  0.37841000  1.0
  Eu  Eu4  1  0.83198000  0.62524000  0.11693000  1.0
  Eu  Eu5  1  0.86546000  0.68644000  0.06612000  1.0
  Eu  Eu6  1  0.35847000  0.87966000  0.81688000  1.0
  Eu  Eu7  1  0.29962000  0.95814000  0.87865000  1.0
  H  H8  1  0.88164000  0.52283000  0.86428000  1.0
  H  H9  1  0.89485000  0.54809000  0.94942000  1.0
  H  H10  1  0.71489000  0.55716000  0.96353000  1.0
  H  H11  1  0.84580000  0.51001000  0.77757000  1.0
  H  H12  1  0.78975000  0.49512000  0.70232000  1.0
  H  H13  1  0.63728000  0.50876000  0.78237000  1.0
  H  H14  1  0.13464000  0.10762000  0.71484000  1.0
  H  H15  1  0.17479000  0.07261000  0.79023000  1.0
  H  H16  1  0.25197000  0.94431000  0.71042000  1.0
  H  H17  1  0.11215000  0.13036000  0.62868000  1.0
  H  H18  1  0.11022000  0.13892000  0.54065000  1.0
  H  H19  1  0.20756000  0.99443000  0.52807000  1.0
  H  H20  1  0.63272000  0.65880000  0.30155000  1.0
  H  H21  1  0.66842000  0.65737000  0.21885000  1.0
  H  H22  1  0.77687000  0.52671000  0.25715000  1.0
  H  H23  1  0.61494000  0.64489000  0.39245000  1.0
  H  H24  1  0.61252000  0.61308000  0.47624000  1.0
  H  H25  1  0.73706000  0.49521000  0.44302000  1.0
  H  H26  1  0.09355000  0.00813000  0.05384000  1.0
  H  H27  1  0.13608000  0.98441000  0.97638000  1.0
  H  H28  1  0.29938000  0.98014000  0.04733000  1.0
  H  H29  1  0.07615000  0.04278000  0.13819000  1.0
  H  H30  1  0.08269000  0.07355000  0.22278000  1.0
  H  H31  1  0.25857000  0.03435000  0.22892000  1.0
  H  H32  1  0.89626000  0.17709000  0.55377000  1.0
  H  H33  1  0.97300000  0.14624000  0.50248000  1.0
  H  H34  1  0.94607000  0.28129000  0.40855000  1.0
  H  H35  1  0.81283000  0.22623000  0.59132000  1.0
  H  H36  1  0.73787000  0.28947000  0.61211000  1.0
  H  H37  1  0.78009000  0.38637000  0.48936000  1.0
  H  H38  1  0.91901000  0.78492000  0.32877000  1.0
  H  H39  1  0.89046000  0.71660000  0.26637000  1.0
  H  H40  1  0.90706000  0.83969000  0.15820000  1.0
  H  H41  1  0.95714000  0.86843000  0.37585000  1.0
  H  H42  1  0.00403000  0.95483000  0.40136000  1.0
  H  H43  1  0.98873000  0.01364000  0.25659000  1.0
  H  H44  1  0.73331000  0.89588000  0.93358000  1.0
  H  H45  1  0.80159000  0.84712000  0.98375000  1.0
  H  H46  1  0.68011000  0.71484000  0.99779000  1.0
  H  H47  1  0.64794000  0.92754000  0.88651000  1.0
  H  H48  1  0.55469000  0.93802000  0.84687000  1.0
  H  H49  1  0.50311000  0.77814000  0.89258000  1.0
  H  H50  1  0.61103000  0.13677000  0.70659000  1.0
  H  H51  1  0.63221000  0.22959000  0.68051000  1.0
  H  H52  1  0.48702000  0.28566000  0.75514000  1.0
  H  H53  1  0.56190000  0.05024000  0.72986000  1.0
  H  H54  1  0.49456000  0.97915000  0.75606000  1.0
  H  H55  1  0.39103000  0.10215000  0.81704000  1.0
  H  H56  1  0.30758000  0.36928000  0.38201000  1.0
  H  H57  1  0.22641000  0.30709000  0.36139000  1.0
  H  H58  1  0.29672000  0.18634000  0.45393000  1.0
  H  H59  1  0.40124000  0.41468000  0.41506000  1.0
  H  H60  1  0.48631000  0.44144000  0.46367000  1.0
  H  H61  1  0.47904000  0.28629000  0.53331000  1.0
  H  H62  1  0.05320000  0.42799000  0.11919000  1.0
  H  H63  1  0.99824000  0.50833000  0.09795000  1.0
  H  H64  1  0.88429000  0.47145000  0.21234000  1.0
  H  H65  1  0.09226000  0.34028000  0.15668000  1.0
  H  H66  1  0.11295000  0.26169000  0.20774000  1.0
  H  H67  1  0.96846000  0.29621000  0.29290000  1.0
  H  H68  1  0.03283000  0.81652000  0.89152000  1.0
  H  H69  1  0.95270000  0.77978000  0.93637000  1.0
  H  H70  1  0.06640000  0.73490000  0.05153000  1.0
  H  H71  1  0.12702000  0.83819000  0.85855000  1.0
  H  H72  1  0.22777000  0.85028000  0.84251000  1.0
  H  H73  1  0.26954000  0.79672000  0.98559000  1.0
  H  H74  1  0.28016000  0.64287000  0.70173000  1.0
  H  H75  1  0.27153000  0.73636000  0.73215000  1.0
  H  H76  1  0.43670000  0.77700000  0.68027000  1.0
  H  H77  1  0.32348000  0.55160000  0.68790000  1.0
  H  H78  1  0.38956000  0.47663000  0.67883000  1.0
  H  H79  1  0.51686000  0.59108000  0.63158000  1.0
  C  C80  1  0.71100000  0.38192000  0.56468000  1.0
  C  C81  1  0.56940000  0.31734000  0.69384000  1.0
  C  C82  1  0.53268000  0.38508000  0.53757000  1.0
  C  C83  1  0.49846000  0.48563000  0.64926000  1.0
  C  C84  1  0.67509000  0.48208000  0.69327000  1.0
  C  C85  1  0.66771000  0.52683000  0.51395000  1.0
  C  C86  1  0.05658000  0.22947000  0.28758000  1.0
  C  C87  1  0.17312000  0.07113000  0.28234000  1.0
  C  C88  1  0.03722000  0.03712000  0.34508000  1.0
  C  C89  1  0.15869000  0.07341000  0.47596000  1.0
  C  C90  1  0.21026000  0.20250000  0.39142000  1.0
  C  C91  1  0.00889000  0.19268000  0.41983000  1.0
  C  C92  1  0.75355000  0.59614000  0.18470000  1.0
  C  C93  1  0.78699000  0.74780000  0.02187000  1.0
  C  C94  1  0.81808000  0.58476000  0.00917000  1.0
  C  C95  1  0.95615000  0.73106000  0.02206000  1.0
  C  C96  1  0.88028000  0.73240000  0.16906000  1.0
  C  C97  1  0.90210000  0.54204000  0.14051000  1.0
  C  C98  1  0.46689000  0.86654000  0.84739000  1.0
  C  C99  1  0.24742000  0.97329000  0.96071000  1.0
  C  C100  1  0.31493000  0.83378000  0.90274000  1.0
  C  C101  1  0.24346000  0.98775000  0.79980000  1.0
  C  C102  1  0.39894000  0.99393000  0.80466000  1.0
  C  C103  1  0.35668000  0.81108000  0.73936000  1.0
  C  C104  1  0.74502000  0.53168000  0.89449000  1.0
  C  C105  1  0.79147000  0.52476000  0.86703000  1.0
  C  C106  1  0.84561000  0.52849000  0.88633000  1.0
  C  C107  1  0.85258000  0.54247000  0.93494000  1.0
  C  C108  1  0.80606000  0.55345000  0.96387000  1.0
  C  C109  1  0.75125000  0.54709000  0.94327000  1.0
  C  C110  1  0.71512000  0.51870000  0.82239000  1.0
  C  C111  1  0.77243000  0.51723000  0.82090000  1.0
  C  C112  1  0.80054000  0.51029000  0.77807000  1.0
  C  C113  1  0.76846000  0.50253000  0.73538000  1.0
  C  C114  1  0.70921000  0.50097000  0.73609000  1.0
  C  C115  1  0.68251000  0.50989000  0.78040000  1.0
  C  C116  1  0.20168000  0.99891000  0.67052000  1.0
  C  C117  1  0.17005000  0.04437000  0.67209000  1.0
  C  C118  1  0.15882000  0.07143000  0.71452000  1.0
  C  C119  1  0.18204000  0.05154000  0.75690000  1.0
  C  C120  1  0.21562000  0.00549000  0.75592000  1.0
  C  C121  1  0.22521000  0.97872000  0.71224000  1.0
  C  C122  1  0.18580000  0.01972000  0.59872000  1.0
  C  C123  1  0.15953000  0.05744000  0.62610000  1.0
  C  C124  1  0.13201000  0.10081000  0.60646000  1.0
  C  C125  1  0.13135000  0.10538000  0.55665000  1.0
  C  C126  1  0.15875000  0.06734000  0.52789000  1.0
  C  C127  1  0.18616000  0.02393000  0.54924000  1.0
  C  C128  1  0.72407000  0.55671000  0.31192000  1.0
  C  C129  1  0.68512000  0.59384000  0.32431000  1.0
  C  C130  1  0.66325000  0.62972000  0.29125000  1.0
  C  C131  1  0.68347000  0.62839000  0.24431000  1.0
  C  C132  1  0.72480000  0.59149000  0.23112000  1.0
  C  C133  1  0.74457000  0.55480000  0.26555000  1.0
  C  C134  1  0.71094000  0.54657000  0.38609000  1.0
  C  C135  1  0.67662000  0.58728000  0.37206000  1.0
  C  C136  1  0.64171000  0.61292000  0.40401000  1.0
  C  C137  1  0.64093000  0.59490000  0.45159000  1.0
  C  C138  1  0.67500000  0.55216000  0.46654000  1.0
  C  C139  1  0.71105000  0.52850000  0.43320000  1.0
  C  C140  1  0.22932000  0.99523000  0.09140000  1.0
  C  C141  1  0.17292000  0.00475000  0.09254000  1.0
  C  C142  1  0.13781000  0.00044000  0.05211000  1.0
  C  C143  1  0.16215000  0.98718000  0.00856000  1.0
  C  C144  1  0.22066000  0.98085000  0.00642000  1.0
  C  C145  1  0.25448000  0.98474000  0.04827000  1.0
  C  C146  1  0.21408000  0.02034000  0.16198000  1.0
  C  C147  1  0.16334000  0.02170000  0.13764000  1.0
  C  C148  1  0.11535000  0.04099000  0.15820000  1.0
  C  C149  1  0.11966000  0.05875000  0.20585000  1.0
  C  C150  1  0.17108000  0.05593000  0.23184000  1.0
  C  C151  1  0.21879000  0.03635000  0.20975000  1.0
  C  C152  1  0.89388000  0.27488000  0.46954000  1.0
  C  C153  1  0.87986000  0.24578000  0.50927000  1.0
  C  C154  1  0.90763000  0.19940000  0.52232000  1.0
  C  C155  1  0.95105000  0.18232000  0.49314000  1.0
  C  C156  1  0.96516000  0.21135000  0.45166000  1.0
  C  C157  1  0.93614000  0.25820000  0.43995000  1.0
  C  C158  1  0.82754000  0.31575000  0.50093000  1.0
  C  C159  1  0.83683000  0.27192000  0.52932000  1.0
  C  C160  1  0.80518000  0.26105000  0.56951000  1.0
  C  C161  1  0.76280000  0.29694000  0.58095000  1.0
  C  C162  1  0.75355000  0.34273000  0.55248000  1.0
  C  C163  1  0.78634000  0.35189000  0.51197000  1.0
  C  C164  1  0.92298000  0.86474000  0.23085000  1.0
  C  C165  1  0.92659000  0.84939000  0.27775000  1.0
  C  C166  1  0.91515000  0.79641000  0.29172000  1.0
  C  C167  1  0.89939000  0.75783000  0.25607000  1.0
  C  C168  1  0.89605000  0.77253000  0.20739000  1.0
  C  C169  1  0.90834000  0.82687000  0.19501000  1.0
  C  C170  1  0.95444000  0.93384000  0.26970000  1.0
  C  C171  1  0.94668000  0.89373000  0.30269000  1.0
  C  C172  1  0.96271000  0.90062000  0.35055000  1.0
  C  C173  1  0.98909000  0.94984000  0.36468000  1.0
  C  C174  1  0.99872000  0.99139000  0.33127000  1.0
  C  C175  1  0.98003000  0.98355000  0.28329000  1.0
  C  C176  1  0.65526000  0.78183000  0.95528000  1.0
  C  C177  1  0.67032000  0.83168000  0.93782000  1.0
  C  C178  1  0.72226000  0.85674000  0.94780000  1.0
  C  C179  1  0.76047000  0.82894000  0.97625000  1.0
  C  C180  1  0.74553000  0.77783000  0.99483000  1.0
  C  C181  1  0.69210000  0.75428000  0.98461000  1.0
  C  C182  1  0.58638000  0.80608000  0.91313000  1.0
  C  C183  1  0.62594000  0.84750000  0.91121000  1.0
  C  C184  1  0.61654000  0.89519000  0.88702000  1.0
  C  C185  1  0.56397000  0.90069000  0.86462000  1.0
  C  C186  1  0.52320000  0.85828000  0.86598000  1.0
  C  C187  1  0.53456000  0.81031000  0.89009000  1.0
  C  C188  1  0.50633000  0.20196000  0.76202000  1.0
  C  C189  1  0.53961000  0.16095000  0.74686000  1.0
  C  C190  1  0.58583000  0.16969000  0.71849000  1.0
  C  C191  1  0.59718000  0.22239000  0.70368000  1.0
  C  C192  1  0.56137000  0.26465000  0.71612000  1.0
  C  C193  1  0.51565000  0.25433000  0.74594000  1.0
  C  C194  1  0.46630000  0.12930000  0.78311000  1.0
  C  C195  1  0.51366000  0.11446000  0.75987000  1.0
  C  C196  1  0.52514000  0.06093000  0.74932000  1.0
  C  C197  1  0.48660000  0.02111000  0.76379000  1.0
  C  C198  1  0.43833000  0.03560000  0.78868000  1.0
  C  C199  1  0.42826000  0.09025000  0.79875000  1.0
  C  C200  1  0.34285000  0.26162000  0.44933000  1.0
  C  C201  1  0.34626000  0.31164000  0.42879000  1.0
  C  C202  1  0.30474000  0.32951000  0.39734000  1.0
  C  C203  1  0.25868000  0.29424000  0.38615000  1.0
  C  C204  1  0.25557000  0.24191000  0.40573000  1.0
  C  C205  1  0.29824000  0.22583000  0.43789000  1.0
  C  C206  1  0.41653000  0.29991000  0.47878000  1.0
  C  C207  1  0.39425000  0.33599000  0.44720000  1.0
  C  C208  1  0.41919000  0.38677000  0.44007000  1.0
  C  C209  1  0.46770000  0.40142000  0.46747000  1.0
  C  C210  1  0.48950000  0.36586000  0.50197000  1.0
  C  C211  1  0.46379000  0.31419000  0.50696000  1.0
  C  C212  1  0.95232000  0.41832000  0.20286000  1.0
  C  C213  1  0.99860000  0.40613000  0.17692000  1.0
  C  C214  1  0.01651000  0.43790000  0.13908000  1.0
  C  C215  1  0.98529000  0.48343000  0.12741000  1.0
  C  C216  1  0.93704000  0.49600000  0.15336000  1.0
  C  C217  1  0.92078000  0.46290000  0.19162000  1.0
  C  C218  1  0.98474000  0.34823000  0.23396000  1.0
  C  C219  1  0.01931000  0.36072000  0.19680000  1.0
  C  C220  1  0.06547000  0.32999000  0.18603000  1.0
  C  C221  1  0.07674000  0.28542000  0.21502000  1.0
  C  C222  1  0.04228000  0.27280000  0.25411000  1.0
  C  C223  1  0.99549000  0.30457000  0.26321000  1.0
  C  C224  1  0.10241000  0.77628000  0.99206000  1.0
  C  C225  1  0.09257000  0.79753000  0.94762000  1.0
  C  C226  1  0.03942000  0.79971000  0.92660000  1.0
  C  C227  1  0.99447000  0.77866000  0.95217000  1.0
  C  C228  1  0.00376000  0.75461000  0.99709000  1.0
  C  C229  1  0.05840000  0.75315000  0.01723000  1.0
  C  C230  1  0.18189000  0.79837000  0.96552000  1.0
  C  C231  1  0.14325000  0.81092000  0.93046000  1.0
  C  C232  1  0.15815000  0.82978000  0.88594000  1.0
  C  C233  1  0.21518000  0.83634000  0.87720000  1.0
  C  C234  1  0.25577000  0.82533000  0.91319000  1.0
  C  C235  1  0.23907000  0.80621000  0.95797000  1.0
  C  C236  1  0.40263000  0.69820000  0.66184000  1.0
  C  C237  1  0.36085000  0.66025000  0.67092000  1.0
  C  C238  1  0.31196000  0.67333000  0.69408000  1.0
  C  C239  1  0.30756000  0.72637000  0.71136000  1.0
  C  C240  1  0.35304000  0.76382000  0.70749000  1.0
  C  C241  1  0.40051000  0.74975000  0.68186000  1.0
  C  C242  1  0.43719000  0.62242000  0.64826000  1.0
  C  C243  1  0.38358000  0.61142000  0.66298000  1.0
  C  C244  1  0.36497000  0.55934000  0.67439000  1.0
  C  C245  1  0.40278000  0.51728000  0.66975000  1.0
  C  C246  1  0.45766000  0.52821000  0.65382000  1.0
  C  C247  1  0.47461000  0.58133000  0.64255000  1.0
  O  O248  1  0.67208000  0.37510000  0.59622000  1.0
  O  O249  1  0.57135000  0.42191000  0.52737000  1.0
  O  O250  1  0.70771000  0.42896000  0.54456000  1.0
  O  O251  1  0.52850000  0.36895000  0.58166000  1.0
  O  O252  1  0.53458000  0.35674000  0.69524000  1.0
  O  O253  1  0.60958000  0.32791000  0.66490000  1.0
  O  O254  1  0.49806000  0.44009000  0.67189000  1.0
  O  O255  1  0.63090000  0.45102000  0.70114000  1.0
  O  O256  1  0.68916000  0.49221000  0.64839000  1.0
  O  O257  1  0.54222000  0.49052000  0.62310000  1.0
  O  O258  1  0.69148000  0.48187000  0.52551000  1.0
  O  O259  1  0.62765000  0.53730000  0.54365000  1.0
  O  O260  1  0.03353000  0.22353000  0.32906000  1.0
  O  O261  1  0.02875000  0.08721000  0.33082000  1.0
  O  O262  1  0.09669000  0.19548000  0.28259000  1.0
  O  O263  1  0.08291000  0.02569000  0.36989000  1.0
  O  O264  1  0.19925000  0.04475000  0.31551000  1.0
  O  O265  1  0.14019000  0.10601000  0.30054000  1.0
  O  O266  1  0.18725000  0.04450000  0.44656000  1.0
  O  O267  1  0.22335000  0.15145000  0.38652000  1.0
  O  O268  1  0.15767000  0.21734000  0.38511000  1.0
  O  O269  1  0.12951000  0.10862000  0.45330000  1.0
  O  O270  1  0.01752000  0.21178000  0.37736000  1.0
  O  O271  1  0.04319000  0.15436000  0.42917000  1.0
  O  O272  1  0.79848000  0.56949000  0.17520000  1.0
  O  O273  1  0.79562000  0.57463000  0.05135000  1.0
  O  O274  1  0.74780000  0.63582000  0.15466000  1.0
  O  O275  1  0.85426000  0.62528000  0.00618000  1.0
  O  O276  1  0.77487000  0.71000000  0.05246000  1.0
  O  O277  1  0.84092000  0.75305000  0.01524000  1.0
  O  O278  1  0.90444000  0.74489000  0.01370000  1.0
  O  O279  1  0.87656000  0.74875000  0.12497000  1.0
  O  O280  1  0.87001000  0.68075000  0.17750000  1.0
  O  O281  1  0.95960000  0.69318000  0.05400000  1.0
  O  O282  1  0.85272000  0.54921000  0.15825000  1.0
  O  O283  1  0.91468000  0.57989000  0.11004000  1.0
  O  O284  1  0.44382000  0.84069000  0.81050000  1.0
  O  O285  1  0.32904000  0.81207000  0.86240000  1.0
  O  O286  1  0.43236000  0.89845000  0.86814000  1.0
  O  O287  1  0.33726000  0.88237000  0.91099000  1.0
  O  O288  1  0.22393000  0.94581000  0.92432000  1.0
  O  O289  1  0.29822000  0.99302000  0.95269000  1.0
  O  O290  1  0.25196000  0.01973000  0.83755000  1.0
  O  O291  1  0.38073000  0.99683000  0.84899000  1.0
  O  O292  1  0.38758000  0.95160000  0.77708000  1.0
  O  O293  1  0.26508000  0.93961000  0.80440000  1.0
  O  O294  1  0.40115000  0.82202000  0.76645000  1.0
  O  O295  1  0.31344000  0.83798000  0.75296000  1.0
  O  O296  1  0.69495000  0.52759000  0.86806000  1.0
  O  O297  1  0.21240000  0.98072000  0.62484000  1.0
  O  O298  1  0.74203000  0.52534000  0.34954000  1.0
  O  O299  1  0.25760000  0.00311000  0.13466000  1.0
  O  O300  1  0.86232000  0.31990000  0.46236000  1.0
  O  O301  1  0.93931000  0.91805000  0.22339000  1.0
  O  O302  1  0.60245000  0.76313000  0.94064000  1.0
  O  O303  1  0.45989000  0.18442000  0.78668000  1.0
  O  O304  1  0.38612000  0.25172000  0.48144000  1.0
  O  O305  1  0.94128000  0.38315000  0.23958000  1.0
  O  O306  1  0.15845000  0.77665000  0.00598000  1.0
  O  O307  1  0.45082000  0.67659000  0.64454000  1.0
