# generated using pymatgen
data_MnZn2H24C24(NO10)2
_symmetry_space_group_name_H-M   'P 1'
_cell_length_a   9.03553333
_cell_length_b   23.53730000
_cell_length_c   30.47290000
_cell_angle_alpha   90.00000000
_cell_angle_beta   90.00000000
_cell_angle_gamma   95.96300000
_symmetry_Int_Tables_number   1
_chemical_formula_structural   MnZn2H24C24(NO10)2
_chemical_formula_sum   'Mn8 Zn16 H192 C192 N16 O160'
_cell_volume   6445.66835295
_cell_formula_units_Z   8
loop_
 _symmetry_equiv_pos_site_id
 _symmetry_equiv_pos_as_xyz
  1  'x, y, z'
loop_
 _atom_site_type_symbol
 _atom_site_label
 _atom_site_symmetry_multiplicity
 _atom_site_fract_x
 _atom_site_fract_y
 _atom_site_fract_z
 _atom_site_occupancy
  C  C0  1  0.39618000  0.03227000  0.01397000  1.0
  C  C1  1  0.26556000  0.18384000  0.02322000  1.0
  C  C2  1  0.95480000  0.01283000  0.95462000  1.0
  C  C3  1  0.93827000  0.06662000  0.88858000  1.0
  C  C4  1  0.94421000  0.01383000  0.90932000  1.0
  C  C5  1  0.90806000  0.11426000  0.91358000  1.0
  C  C6  1  0.91861000  0.11099000  0.95897000  1.0
  C  C7  1  0.02219000  0.05655000  0.08430000  1.0
  C  C8  1  0.36554000  0.18747000  0.17366000  1.0
  C  C9  1  0.25562000  0.03333000  0.17747000  1.0
  C  C10  1  0.73078000  0.15264000  0.23813000  1.0
  C  C11  1  0.73887000  0.10415000  0.30716000  1.0
  C  C12  1  0.75831000  0.15506000  0.28296000  1.0
  C  C13  1  0.73169000  0.05202000  0.28487000  1.0
  C  C14  1  0.69908000  0.05162000  0.24052000  1.0
  C  C15  1  0.62229000  0.07627000  0.11753000  1.0
  C  C16  1  0.59912000  0.44710000  0.27440000  1.0
  C  C17  1  0.49147000  0.28825000  0.26837000  1.0
  C  C18  1  0.94714000  0.41095000  0.20424000  1.0
  C  C19  1  0.94058000  0.35743000  0.13727000  1.0
  C  C20  1  0.95787000  0.41019000  0.15883000  1.0
  C  C21  1  0.94646000  0.30738000  0.16151000  1.0
  C  C22  1  0.92798000  0.30997000  0.20638000  1.0
  C  C23  1  0.86171000  0.33574000  0.32964000  1.0
  C  C24  1  0.62180000  0.29199000  0.43387000  1.0
  C  C25  1  0.51397000  0.44573000  0.42256000  1.0
  C  C26  1  0.17147000  0.27901000  0.48942000  1.0
  C  C27  1  0.14178000  0.32781000  0.55667000  1.0
  C  C28  1  0.14169000  0.27632000  0.53374000  1.0
  C  C29  1  0.12665000  0.37841000  0.53360000  1.0
  C  C30  1  0.15144000  0.37877000  0.48868000  1.0
  C  C31  1  0.26105000  0.31014000  0.36658000  1.0
  C  C32  1  0.11590000  0.44144000  0.77205000  1.0
  C  C33  1  0.99518000  0.28483000  0.77243000  1.0
  C  C34  1  0.45710000  0.40027000  0.70129000  1.0
  C  C35  1  0.46864000  0.34599000  0.63514000  1.0
  C  C36  1  0.48370000  0.39880000  0.65647000  1.0
  C  C37  1  0.46651000  0.29630000  0.66010000  1.0
  C  C38  1  0.42756000  0.29942000  0.70373000  1.0
  C  C39  1  0.36227000  0.32157000  0.82517000  1.0
  C  C40  1  0.12856000  0.28656000  0.93393000  1.0
  C  C41  1  0.03877000  0.44219000  0.92439000  1.0
  C  C42  1  0.67994000  0.27804000  0.98611000  1.0
  C  C43  1  0.63699000  0.33015000  0.05122000  1.0
  C  C44  1  0.64449000  0.27757000  0.03014000  1.0
  C  C45  1  0.62469000  0.37928000  0.02601000  1.0
  C  C46  1  0.65726000  0.37743000  0.98153000  1.0
  C  C47  1  0.77162000  0.32036000  0.86128000  1.0
  C  C48  1  0.89757000  0.53152000  0.01942000  1.0
  C  C49  1  0.76651000  0.68223000  0.02622000  1.0
  C  C50  1  0.44775000  0.50630000  0.96297000  1.0
  C  C51  1  0.42776000  0.54976000  0.89252000  1.0
  C  C52  1  0.42935000  0.50032000  0.91808000  1.0
  C  C53  1  0.41314000  0.60224000  0.91311000  1.0
  C  C54  1  0.43019000  0.60594000  0.95837000  1.0
  C  C55  1  0.52138000  0.55703000  0.08874000  1.0
  C  C56  1  0.86521000  0.68927000  0.17748000  1.0
  C  C57  1  0.75345000  0.53679000  0.18269000  1.0
  C  C58  1  0.22198000  0.65413000  0.24560000  1.0
  C  C59  1  0.22356000  0.60461000  0.31427000  1.0
  C  C60  1  0.24575000  0.65577000  0.29061000  1.0
  C  C61  1  0.21344000  0.55266000  0.29182000  1.0
  C  C62  1  0.18595000  0.55305000  0.24722000  1.0
  C  C63  1  0.12173000  0.57684000  0.12281000  1.0
  C  C64  1  0.11732000  0.94553000  0.27491000  1.0
  C  C65  1  0.99496000  0.78829000  0.27226000  1.0
  C  C66  1  0.44953000  0.90968000  0.20039000  1.0
  C  C67  1  0.44678000  0.85905000  0.13228000  1.0
  C  C68  1  0.46343000  0.91076000  0.15501000  1.0
  C  C69  1  0.45168000  0.80808000  0.15531000  1.0
  C  C70  1  0.42299000  0.80867000  0.19976000  1.0
  C  C71  1  0.36474000  0.82398000  0.32489000  1.0
  C  C72  1  0.13228000  0.79208000  0.43717000  1.0
  C  C73  1  0.03890000  0.94810000  0.42238000  1.0
  C  C74  1  0.71562000  0.79456000  0.50012000  1.0
  C  C75  1  0.75950000  0.86478000  0.55673000  1.0
  C  C76  1  0.74394000  0.80718000  0.54392000  1.0
  C  C77  1  0.70251000  0.90498000  0.52917000  1.0
  C  C78  1  0.67504000  0.89027000  0.48554000  1.0
  C  C79  1  0.76944000  0.82256000  0.36569000  1.0
  C  C80  1  0.61697000  0.93314000  0.76984000  1.0
  C  C81  1  0.49201000  0.77525000  0.77577000  1.0
  C  C82  1  0.00444000  0.88351000  0.71516000  1.0
  C  C83  1  0.03902000  0.84440000  0.64350000  1.0
  C  C84  1  0.07630000  0.88742000  0.67473000  1.0
  C  C85  1  0.96191000  0.79278000  0.65702000  1.0
  C  C86  1  0.88716000  0.79183000  0.69666000  1.0
  C  C87  1  0.86166000  0.81372000  0.82468000  1.0
  C  C88  1  0.62906000  0.78216000  0.93505000  1.0
  C  C89  1  0.54246000  0.93785000  0.92264000  1.0
  C  C90  1  0.17778000  0.77880000  0.98854000  1.0
  C  C91  1  0.12991000  0.83712000  0.04997000  1.0
  C  C92  1  0.13562000  0.78245000  0.03191000  1.0
  C  C93  1  0.12014000  0.88360000  0.02169000  1.0
  C  C94  1  0.15734000  0.87750000  0.97790000  1.0
  C  C95  1  0.27106000  0.81495000  0.86221000  1.0
  C  C96  1  0.38462000  0.53977000  0.51367000  1.0
  C  C97  1  0.26229000  0.68981000  0.52900000  1.0
  C  C98  1  0.93589000  0.52615000  0.45655000  1.0
  C  C99  1  0.90742000  0.58889000  0.39614000  1.0
  C  C100  1  0.91444000  0.53328000  0.41202000  1.0
  C  C101  1  0.87987000  0.63244000  0.42562000  1.0
  C  C102  1  0.89961000  0.62296000  0.47006000  1.0
  C  C103  1  0.01725000  0.55782000  0.58712000  1.0
  C  C104  1  0.35340000  0.67715000  0.68300000  1.0
  C  C105  1  0.25288000  0.52771000  0.67549000  1.0
  C  C106  1  0.72314000  0.62856000  0.74380000  1.0
  C  C107  1  0.71375000  0.56010000  0.80239000  1.0
  C  C108  1  0.73767000  0.61708000  0.78832000  1.0
  C  C109  1  0.70673000  0.51620000  0.77151000  1.0
  C  C110  1  0.69671000  0.52982000  0.72775000  1.0
  C  C111  1  0.61547000  0.57879000  0.61526000  1.0
  C  C112  1  0.89699000  0.04200000  0.51171000  1.0
  C  C113  1  0.76705000  0.19013000  0.52413000  1.0
  C  C114  1  0.44935000  0.02354000  0.45407000  1.0
  C  C115  1  0.42808000  0.08261000  0.39108000  1.0
  C  C116  1  0.43629000  0.02823000  0.40902000  1.0
  C  C117  1  0.39785000  0.12789000  0.41857000  1.0
  C  C118  1  0.41076000  0.12087000  0.46359000  1.0
  C  C119  1  0.52222000  0.06011000  0.58387000  1.0
  C  C120  1  0.85861000  0.18367000  0.67907000  1.0
  C  C121  1  0.75456000  0.02994000  0.67500000  1.0
  C  C122  1  0.23318000  0.14302000  0.73821000  1.0
  C  C123  1  0.24936000  0.08823000  0.80412000  1.0
  C  C124  1  0.26678000  0.14128000  0.78266000  1.0
  C  C125  1  0.23951000  0.03834000  0.77893000  1.0
  C  C126  1  0.20279000  0.04207000  0.73501000  1.0
  C  C127  1  0.11962000  0.07844000  0.61604000  1.0
  C  C128  1  0.33872000  0.24055000  0.20025000  1.0
  C  C129  1  0.39219000  0.23690000  0.24984000  1.0
  C  C130  1  0.23167000  0.24252000  0.00648000  1.0
  C  C131  1  0.23114000  0.24597000  0.95495000  1.0
  C  C132  1  0.60627000  0.50836000  0.20242000  1.0
  C  C133  1  0.57504000  0.50386000  0.25358000  1.0
  C  C134  1  0.04450000  0.50208000  0.94520000  1.0
  C  C135  1  0.03021000  0.50551000  0.99722000  1.0
  C  C136  1  0.83441000  0.74101000  0.20514000  1.0
  C  C137  1  0.89208000  0.73727667  0.25446000  1.0
  C  C138  1  0.73325000  0.74269000  0.95674000  1.0
  C  C139  1  0.73097000  0.74011000  0.00834000  1.0
  C  C140  1  0.07868000  0.99589000  0.24708000  1.0
  C  C141  1  0.12513000  0.99334000  0.19667000  1.0
  C  C142  1  0.54114000  0.99881000  0.94081000  1.0
  C  C143  1  0.52742000  0.00474000  0.99265000  1.0
  C  C144  1  0.40390000  0.71952000  0.76115000  1.0
  C  C145  1  0.31184000  0.72119000  0.71667000  1.0
  C  C146  1  0.24108000  0.74957000  0.51130000  1.0
  C  C147  1  0.23249000  0.75110000  0.45948000  1.0
  C  C148  1  0.63275000  0.98420000  0.69187000  1.0
  C  C149  1  0.57922000  0.98395000  0.74189000  1.0
  C  C150  1  0.03395000  0.02018000  0.48873000  1.0
  C  C151  1  0.04019000  0.01026000  0.43737000  1.0
  C  C152  1  0.82754000  0.23403000  0.70830000  1.0
  C  C153  1  0.89435000  0.23200000  0.75666000  1.0
  C  C154  1  0.71818000  0.24824000  0.45376000  1.0
  C  C155  1  0.73721000  0.24855000  0.50531000  1.0
  C  C156  1  0.12180000  0.48758000  0.69344000  1.0
  C  C157  1  0.07659000  0.49091000  0.74374000  1.0
  C  C158  1  0.51539000  0.51391000  0.49100000  1.0
  C  C159  1  0.51993000  0.50704000  0.43933000  1.0
  C  C160  1  0.75476000  0.07776000  0.08767000  1.0
  C  C161  1  0.89778000  0.06868000  0.11418000  1.0
  C  C162  1  0.01072000  0.34902000  0.35226000  1.0
  C  C163  1  0.12860000  0.30878000  0.33656000  1.0
  C  C164  1  0.48917000  0.31223000  0.85468000  1.0
  C  C165  1  0.64161000  0.33705000  0.83460000  1.0
  C  C166  1  0.25189000  0.57654000  0.09214000  1.0
  C  C167  1  0.39775000  0.57059000  0.11826000  1.0
  C  C168  1  0.48753000  0.81458000  0.35580000  1.0
  C  C169  1  0.64259000  0.83993000  0.33789000  1.0
  C  C170  1  0.98822000  0.80556000  0.85473000  1.0
  C  C171  1  0.14107000  0.83078000  0.83499000  1.0
  C  C172  1  0.88879000  0.56757000  0.61620000  1.0
  C  C173  1  0.75610000  0.58656000  0.58891000  1.0
  C  C174  1  0.25676000  0.08318000  0.58769000  1.0
  C  C175  1  0.39613000  0.06902000  0.61426000  1.0
  C  C176  1  0.49547000  0.09446000  0.34673000  1.0
  C  C177  1  0.66891000  0.10337000  0.35179000  1.0
  C  C178  1  0.00704000  0.07446000  0.84399000  1.0
  C  C179  1  0.18044000  0.08333000  0.84897000  1.0
  C  C180  1  0.87034000  0.35387000  0.09286000  1.0
  C  C181  1  0.69826000  0.33739000  0.09675000  1.0
  C  C182  1  0.98176000  0.60325000  0.35304000  1.0
  C  C183  1  0.15467000  0.60445000  0.35882000  1.0
  C  C184  1  0.48316000  0.54932000  0.84634000  1.0
  C  C185  1  0.65479000  0.54679000  0.84753000  1.0
  C  C186  1  0.19960000  0.84957000  0.09403000  1.0
  C  C187  1  0.37361000  0.85693000  0.08839000  1.0
  C  C188  1  0.00899000  0.86178000  0.59734000  1.0
  C  C189  1  0.84777000  0.88212000  0.59738000  1.0
  C  C190  1  0.38972000  0.34240000  0.59201000  1.0
  C  C191  1  0.21731000  0.33221000  0.60012000  1.0
  H  H192  1  0.72343000  0.19193000  0.22040000  1.0
  H  H193  1  0.76936000  0.19615000  0.29889000  1.0
  H  H194  1  0.72108000  0.01186000  0.30259000  1.0
  H  H195  1  0.66437000  0.01122000  0.22506000  1.0
  H  H196  1  0.98480000  0.97477000  0.97054000  1.0
  H  H197  1  0.96410000  0.97604000  0.89080000  1.0
  H  H198  1  0.89928000  0.15545000  0.89851000  1.0
  H  H199  1  0.91911000  0.14969000  0.97814000  1.0
  H  H200  1  0.20408000  0.24116000  0.47359000  1.0
  H  H201  1  0.14799000  0.23618000  0.55060000  1.0
  H  H202  1  0.12313000  0.41861000  0.55066000  1.0
  H  H203  1  0.16337000  0.41912000  0.47150000  1.0
  H  H204  1  0.93902000  0.45124000  0.22043000  1.0
  H  H205  1  0.95569000  0.44954000  0.14070000  1.0
  H  H206  1  0.93771000  0.26576000  0.14606000  1.0
  H  H207  1  0.90181000  0.27043000  0.22387000  1.0
  H  H208  1  0.71525000  0.23984000  0.97140000  1.0
  H  H209  1  0.65050000  0.23849000  0.04845000  1.0
  H  H210  1  0.61717000  0.42020000  0.04157000  1.0
  H  H211  1  0.67363000  0.41677000  0.96306000  1.0
  H  H212  1  0.44816000  0.44103000  0.71660000  1.0
  H  H213  1  0.48591000  0.43767000  0.63777000  1.0
  H  H214  1  0.46068000  0.25447000  0.64506000  1.0
  H  H215  1  0.39266000  0.26005000  0.72037000  1.0
  H  H216  1  0.21621000  0.69371000  0.22821000  1.0
  H  H217  1  0.25409000  0.69641000  0.30728000  1.0
  H  H218  1  0.19908000  0.51235000  0.30929000  1.0
  H  H219  1  0.15145000  0.51301000  0.23127000  1.0
  H  H220  1  0.47196000  0.46987000  0.98211000  1.0
  H  H221  1  0.43692000  0.45888000  0.90327000  1.0
  H  H222  1  0.40870000  0.64101000  0.89420000  1.0
  H  H223  1  0.43834000  0.64750000  0.97383000  1.0
  H  H224  1  0.73414000  0.75266000  0.48800000  1.0
  H  H225  1  0.77381000  0.77387000  0.56572000  1.0
  H  H226  1  0.69688000  0.94843000  0.53955000  1.0
  H  H227  1  0.66165000  0.92351000  0.46188000  1.0
  H  H228  1  0.44494000  0.94956000  0.21745000  1.0
  H  H229  1  0.46134000  0.95054000  0.13760000  1.0
  H  H230  1  0.44516000  0.76728000  0.13856000  1.0
  H  H231  1  0.39233000  0.76831000  0.21560000  1.0
  H  H232  1  0.21336000  0.73921000  0.97641000  1.0
  H  H233  1  0.13753000  0.74478000  0.05209000  1.0
  H  H234  1  0.11347000  0.92603000  0.03456000  1.0
  H  H235  1  0.17604000  0.91494000  0.95732000  1.0
  H  H236  1  0.01779000  0.91887000  0.73791000  1.0
  H  H237  1  0.13922000  0.92725000  0.66554000  1.0
  H  H238  1  0.93349000  0.75840000  0.63388000  1.0
  H  H239  1  0.80613000  0.75635000  0.70426000  1.0
  H  H240  1  0.71925000  0.67198000  0.73326000  1.0
  H  H241  1  0.74541000  0.65200000  0.81165000  1.0
  H  H242  1  0.69145000  0.47162000  0.78099000  1.0
  H  H243  1  0.67470000  0.49518000  0.70489000  1.0
  H  H244  1  0.97141000  0.48639000  0.46825000  1.0
  H  H245  1  0.93142000  0.49839000  0.38997000  1.0
  H  H246  1  0.86790000  0.67547000  0.41472000  1.0
  H  H247  1  0.90541000  0.65896000  0.49225000  1.0
  H  H248  1  0.22151000  0.18369000  0.72307000  1.0
  H  H249  1  0.27946000  0.18085000  0.80080000  1.0
  H  H250  1  0.22973000  0.99663000  0.79439000  1.0
  H  H251  1  0.16542000  0.00339000  0.71770000  1.0
  H  H252  1  0.48113000  0.98443000  0.46791000  1.0
  H  H253  1  0.45606000  0.99218000  0.38849000  1.0
  H  H254  1  0.38777000  0.17017000  0.40567000  1.0
  H  H255  1  0.41218000  0.15791000  0.48467000  1.0
  H  H256  1  0.40627000  0.27696000  0.18460000  1.0
  H  H257  1  0.46293000  0.20143000  0.25356000  1.0
  H  H258  1  0.12601000  0.21624000  0.20510000  1.0
  H  H259  1  0.22569000  0.18509000  0.27042000  1.0
  H  H260  1  0.11651000  0.24694000  0.01808000  1.0
  H  H261  1  0.18782000  0.20342000  0.94172000  1.0
  H  H262  1  0.28164000  0.32221000  0.02124000  1.0
  H  H263  1  0.42680000  0.22369000  0.94287000  1.0
  H  H264  1  0.52939000  0.53924000  0.19271000  1.0
  H  H265  1  0.45556000  0.50925000  0.25845000  1.0
  H  H266  1  0.63819000  0.43201000  0.18254000  1.0
  H  H267  1  0.60987000  0.55482000  0.30367000  1.0
  H  H268  1  0.15424000  0.52395000  0.93629000  1.0
  H  H269  1  0.12745000  0.53562000  0.00662000  1.0
  H  H270  1  0.84184000  0.51260000  0.92891000  1.0
  H  H271  1  0.96094000  0.42833000  0.01455000  1.0
  H  H272  1  0.89712000  0.77849000  0.18917000  1.0
  H  H273  1  0.96202000  0.70151000  0.25737000  1.0
  H  H274  1  0.62444000  0.71336000  0.21220000  1.0
  H  H275  1  0.73385000  0.68429000  0.27901000  1.0
  H  H276  1  0.69346000  0.69964000  0.94351000  1.0
  H  H277  1  0.61462000  0.74369000  0.01917000  1.0
  H  H278  1  0.93128000  0.72224000  0.94561000  1.0
  H  H279  1  0.77731000  0.82056000  0.02124000  1.0
  H  H280  1  0.95559000  0.99355000  0.24808000  1.0
  H  H281  1  0.02883000  0.00669000  0.17893000  1.0
  H  H282  1  0.23622000  0.04581000  0.27583000  1.0
  H  H283  1  0.03809000  0.91622000  0.18271000  1.0
  H  H284  1  0.64862000  0.02212000  0.93082000  1.0
  H  H285  1  0.62595000  0.03465000  0.00179000  1.0
  H  H286  1  0.33643000  0.00129000  0.92127000  1.0
  H  H287  1  0.64834000  0.94638000  0.01341000  1.0
  H  H288  1  0.49273000  0.69150000  0.75744000  1.0
  H  H289  1  0.33558000  0.76420000  0.70149000  1.0
  H  H290  1  0.24580000  0.72028000  0.80462000  1.0
  H  H291  1  0.10513000  0.71693000  0.69815000  1.0
  H  H292  1  0.13096000  0.75984000  0.52369000  1.0
  H  H293  1  0.18027000  0.70887000  0.44883000  1.0
  H  H294  1  0.32797000  0.79803000  0.55824000  1.0
  H  H295  1  0.42196000  0.79563000  0.45048000  1.0
  H  H296  1  0.53388000  0.99235000  0.67228000  1.0
  H  H297  1  0.45602000  0.98031000  0.74127000  1.0
  H  H298  1  0.57610000  0.90465000  0.67636000  1.0
  H  H299  1  0.72945000  0.03426000  0.77277000  1.0
  H  H300  1  0.12212000  0.05590000  0.49452000  1.0
  H  H301  1  0.14569000  0.03339000  0.42534000  1.0
  H  H302  1  0.99826000  0.94369000  0.51277000  1.0
  H  H303  1  0.95187000  0.04298000  0.38638000  1.0
  H  H304  1  0.87944000  0.27302000  0.69164000  1.0
  H  H305  1  0.96626000  0.19672000  0.75868000  1.0
  H  H306  1  0.62395000  0.20084000  0.71948000  1.0
  H  H307  1  0.82070000  0.20839000  0.81510000  1.0
  H  H308  1  0.65640000  0.20688000  0.44437000  1.0
  H  H309  1  0.62803000  0.25615000  0.51954000  1.0
  H  H310  1  0.89868000  0.21523000  0.43768000  1.0
  H  H311  1  0.79919000  0.32859000  0.51548000  1.0
  H  H312  1  0.02548000  0.50026000  0.67486000  1.0
  H  H313  1  0.95437000  0.48855000  0.74429000  1.0
  H  H314  1  0.03955000  0.40971000  0.68067000  1.0
  H  H315  1  0.07222000  0.55054000  0.78777000  1.0
  H  H316  1  0.61212000  0.54544000  0.49821000  1.0
  H  H317  1  0.62622000  0.52993000  0.42771000  1.0
  H  H318  1  0.45204000  0.43840000  0.51425000  1.0
  H  H319  1  0.43232000  0.54272000  0.38954000  1.0
  H  H320  1  0.73210000  0.04048000  0.06574000  1.0
  H  H321  1  0.86999000  0.02954000  0.13403000  1.0
  H  H322  1  0.79005000  0.16086000  0.08211000  1.0
  H  H323  1  0.97407000  0.10235000  0.16918000  1.0
  H  H324  1  0.05489000  0.39367000  0.34358000  1.0
  H  H325  1  0.16880000  0.32415000  0.30373000  1.0
  H  H326  1  0.94722000  0.38110000  0.40701000  1.0
  H  H327  1  0.01294000  0.24027000  0.36031000  1.0
  H  H328  1  0.47464000  0.33465000  0.88622000  1.0
  H  H329  1  0.64417000  0.38451000  0.83498000  1.0
  H  H330  1  0.51774000  0.23421000  0.83508000  1.0
  H  H331  1  0.72280000  0.34813000  0.77579000  1.0
  H  H332  1  0.22896000  0.53736000  0.07218000  1.0
  H  H333  1  0.37544000  0.53292000  0.14009000  1.0
  H  H334  1  0.28246000  0.65912000  0.08242000  1.0
  H  H335  1  0.39473000  0.61657000  0.17118000  1.0
  H  H336  1  0.46810000  0.83718000  0.38679000  1.0
  H  H337  1  0.64493000  0.88746000  0.33937000  1.0
  H  H338  1  0.51860000  0.73679000  0.33659000  1.0
  H  H339  1  0.72984000  0.85419000  0.28010000  1.0
  H  H340  1  0.97192000  0.82876000  0.88580000  1.0
  H  H341  1  0.14257000  0.87828000  0.83510000  1.0
  H  H342  1  0.01240000  0.72685000  0.83622000  1.0
  H  H343  1  0.22925000  0.84062000  0.77700000  1.0
  H  H344  1  0.85212000  0.52524000  0.63071000  1.0
  H  H345  1  0.73970000  0.55767000  0.56018000  1.0
  H  H346  1  0.96186000  0.64402000  0.63742000  1.0
  H  H347  1  0.71455000  0.64915000  0.55087000  1.0
  H  H348  1  0.23563000  0.05005000  0.56205000  1.0
  H  H349  1  0.36548000  0.02775000  0.63139000  1.0
  H  H350  1  0.29446000  0.16634000  0.59016000  1.0
  H  H351  1  0.48352000  0.09511000  0.66999000  1.0
  H  H352  1  0.46589000  0.05635000  0.32545000  1.0
  H  H353  1  0.70338000  0.06578000  0.36967000  1.0
  H  H354  1  0.33590000  0.13100000  0.32048000  1.0
  H  H355  1  0.66544000  0.18458000  0.36649000  1.0
  H  H356  1  0.97756000  0.03476000  0.82443000  1.0
  H  H357  1  0.21509000  0.04429000  0.86468000  1.0
  H  H358  1  0.85256000  0.10871000  0.81262000  1.0
  H  H359  1  0.17528000  0.16301000  0.86791000  1.0
  H  H360  1  0.88500000  0.39705000  0.07814000  1.0
  H  H361  1  0.64944000  0.37324000  0.11348000  1.0
  H  H362  1  0.91138000  0.27719000  0.07375000  1.0
  H  H363  1  0.55628000  0.28169000  0.12490000  1.0
  H  H364  1  0.94371000  0.56815000  0.32985000  1.0
  H  H365  1  0.17823000  0.56474000  0.37622000  1.0
  H  H366  1  0.99434000  0.68719000  0.35002000  1.0
  H  H367  1  0.31282000  0.64441000  0.39346000  1.0
  H  H368  1  0.45739000  0.58964000  0.82989000  1.0
  H  H369  1  0.70608000  0.57952000  0.87097000  1.0
  H  H370  1  0.40425000  0.51291000  0.79290000  1.0
  H  H371  1  0.79467000  0.49010000  0.85754000  1.0
  H  H372  1  0.16711000  0.89119000  0.10591000  1.0
  H  H373  1  0.40134000  0.89847000  0.07136000  1.0
  H  H374  1  0.19084000  0.77212000  0.11915000  1.0
  H  H375  1  0.51514000  0.82877000  0.04794000  1.0
  H  H376  1  0.01333000  0.82413000  0.57540000  1.0
  H  H377  1  0.77952000  0.85990000  0.62382000  1.0
  H  H378  1  0.20840000  0.88732000  0.57672000  1.0
  H  H379  1  0.91054000  0.96219000  0.58342000  1.0
  H  H380  1  0.41224000  0.38414000  0.57510000  1.0
  H  H381  1  0.18393000  0.37003000  0.61793000  1.0
  H  H382  1  0.40501000  0.26264000  0.57482000  1.0
  H  H383  1  0.07805000  0.28579000  0.63722000  1.0
  Mn  Mn384  1  0.32942000  0.10782000  0.09709000  1.0
  Mn  Mn385  1  0.56208000  0.36430000  0.34967000  1.0
  Mn  Mn386  1  0.08296000  0.36275000  0.85012000  1.0
  Mn  Mn387  1  0.82952000  0.60828000  0.10152000  1.0
  Mn  Mn388  1  0.08250000  0.86399000  0.35121000  1.0
  Mn  Mn389  1  0.58330000  0.85638000  0.85006000  1.0
  Mn  Mn390  1  0.32232000  0.60949000  0.59993000  1.0
  Mn  Mn391  1  0.82698000  0.11203000  0.59760000  1.0
  N  N392  1  0.68218000  0.10157000  0.21962000  1.0
  N  N393  1  0.96142000  0.06262000  0.97728000  1.0
  N  N394  1  0.19267000  0.33080000  0.46932000  1.0
  N  N395  1  0.91257000  0.36084000  0.22593000  1.0
  N  N396  1  0.70098000  0.32860000  0.96449000  1.0
  N  N397  1  0.41106000  0.35075000  0.72250000  1.0
  N  N398  1  0.17433000  0.60345000  0.22632000  1.0
  N  N399  1  0.46522000  0.55930000  0.98095000  1.0
  N  N400  1  0.70774000  0.83832000  0.47153000  1.0
  N  N401  1  0.40859000  0.85891000  0.22064000  1.0
  N  N402  1  0.20288000  0.82723000  0.96445000  1.0
  N  N403  1  0.90193000  0.83833000  0.72320000  1.0
  N  N404  1  0.68396000  0.58469000  0.71578000  1.0
  N  N405  1  0.94697000  0.57266000  0.48306000  1.0
  N  N406  1  0.18394000  0.09374000  0.71723000  1.0
  N  N407  1  0.45646000  0.07141000  0.47903000  1.0
  O  O408  1  0.49322000  0.16834000  0.18162000  1.0
  O  O409  1  0.26845000  0.16092000  0.14478000  1.0
  O  O410  1  0.53478000  0.11763000  0.12039000  1.0
  O  O411  1  0.27142000  0.03778000  0.13416000  1.0
  O  O412  1  0.35701000  0.05982000  0.20254000  1.0
  O  O413  1  0.61240000  0.04033000  0.15000000  1.0
  O  O414  1  0.26353000  0.02733000  0.99694000  1.0
  O  O415  1  0.42128000  0.05993000  0.05151000  1.0
  O  O416  1  0.12654000  0.09666000  0.07312000  1.0
  O  O417  1  0.35691000  0.17647000  0.05739000  1.0
  O  O418  1  0.17224000  0.14177000  0.00776000  1.0
  O  O419  1  0.99572000  0.01731000  0.05426000  1.0
  O  O420  1  0.50328000  0.30306000  0.45502000  1.0
  O  O421  1  0.64169000  0.30842000  0.39235000  1.0
  O  O422  1  0.35578000  0.35580000  0.37257000  1.0
  O  O423  1  0.60612000  0.43056000  0.39097000  1.0
  O  O424  1  0.40219000  0.41073000  0.43706000  1.0
  O  O425  1  0.25243000  0.27530000  0.39966000  1.0
  O  O426  1  0.72021000  0.42584000  0.26245000  1.0
  O  O427  1  0.50618000  0.42143000  0.30464000  1.0
  O  O428  1  0.76744000  0.37451000  0.32604000  1.0
  O  O429  1  0.49544000  0.29674000  0.31132000  1.0
  O  O430  1  0.59606000  0.31387000  0.24396000  1.0
  O  O431  1  0.85452000  0.30068000  0.29667000  1.0
  O  O432  1  0.99685000  0.28884000  0.95029000  1.0
  O  O433  1  0.16506000  0.31170000  0.89588000  1.0
  O  O434  1  0.87934000  0.35887000  0.87274000  1.0
  O  O435  1  0.12504000  0.43102000  0.88978000  1.0
  O  O436  1  0.93175000  0.40455000  0.93899000  1.0
  O  O437  1  0.74920000  0.27990000  0.89047000  1.0
  O  O438  1  0.24032000  0.42140000  0.76243000  1.0
  O  O439  1  0.02380000  0.41602000  0.80242000  1.0
  O  O440  1  0.28712000  0.36687000  0.82551000  1.0
  O  O441  1  0.01645000  0.29241000  0.81513000  1.0
  O  O442  1  0.08706000  0.31287000  0.74517000  1.0
  O  O443  1  0.34134000  0.28883000  0.79122000  1.0
  O  O444  1  0.99551000  0.67163000  0.18448000  1.0
  O  O445  1  0.76791000  0.66174000  0.14904000  1.0
  O  O446  1  0.03470000  0.61843000  0.12502000  1.0
  O  O447  1  0.77204000  0.53882000  0.13937000  1.0
  O  O448  1  0.85246000  0.56513000  0.20736000  1.0
  O  O449  1  0.11186000  0.54187000  0.15594000  1.0
  O  O450  1  0.76404000  0.52466000  0.00314000  1.0
  O  O451  1  0.92308000  0.56054000  0.05630000  1.0
  O  O452  1  0.62697000  0.59645000  0.07714000  1.0
  O  O453  1  0.85621000  0.67627000  0.06108000  1.0
  O  O454  1  0.67441000  0.63950000  0.01119000  1.0
  O  O455  1  0.49461000  0.51688000  0.05945000  1.0
  O  O456  1  0.00424000  0.79815000  0.45494000  1.0
  O  O457  1  0.16395000  0.81216000  0.39698000  1.0
  O  O458  1  0.88073000  0.86043000  0.37537000  1.0
  O  O459  1  0.12878000  0.93280000  0.38996000  1.0
  O  O460  1  0.92936000  0.91278000  0.43832000  1.0
  O  O461  1  0.74009000  0.78643000  0.39783000  1.0
  O  O462  1  0.24409000  0.92687000  0.26576000  1.0
  O  O463  1  0.02329000  0.91807000  0.30394000  1.0
  O  O464  1  0.28548000  0.86807000  0.32578000  1.0
  O  O465  1  0.01201000  0.79454000  0.31534000  1.0
  O  O466  1  0.08926000  0.81695000  0.24585000  1.0
  O  O467  1  0.35794000  0.79544000  0.28863000  1.0
  O  O468  1  0.49609000  0.78347000  0.95081000  1.0
  O  O469  1  0.66686000  0.80786000  0.89730000  1.0
  O  O470  1  0.37983000  0.85360000  0.87289000  1.0
  O  O471  1  0.62583000  0.92640000  0.88752000  1.0
  O  O472  1  0.43914000  0.89990000  0.93901000  1.0
  O  O473  1  0.24874000  0.77514000  0.89194000  1.0
  O  O474  1  0.74126000  0.91253000  0.76013000  1.0
  O  O475  1  0.52473000  0.90807000  0.80061000  1.0
  O  O476  1  0.78574000  0.85892000  0.82491000  1.0
  O  O477  1  0.51698000  0.78411000  0.81798000  1.0
  O  O478  1  0.57888000  0.80374000  0.74748000  1.0
  O  O479  1  0.84281000  0.78062000  0.79055000  1.0
  O  O480  1  0.48542000  0.65957000  0.68758000  1.0
  O  O481  1  0.25978000  0.65537000  0.65146000  1.0
  O  O482  1  0.52898000  0.61946000  0.62207000  1.0
  O  O483  1  0.26879000  0.53563000  0.63257000  1.0
  O  O484  1  0.35624000  0.55087000  0.70131000  1.0
  O  O485  1  0.59050000  0.53470000  0.64068000  1.0
  O  O486  1  0.25056000  0.53409000  0.49764000  1.0
  O  O487  1  0.41257000  0.56694000  0.55116000  1.0
  O  O488  1  0.11836000  0.59965000  0.57702000  1.0
  O  O489  1  0.34801000  0.68125000  0.56408000  1.0
  O  O490  1  0.16930000  0.64840000  0.51230000  1.0
  O  O491  1  0.99438000  0.51965000  0.55613000  1.0
  O  O492  1  0.98379000  0.16262000  0.68713000  1.0
  O  O493  1  0.76545000  0.16163000  0.64737000  1.0
  O  O494  1  0.03311000  0.12002000  0.62116000  1.0
  O  O495  1  0.76695000  0.03991000  0.63212000  1.0
  O  O496  1  0.85867000  0.05259000  0.70091000  1.0
  O  O497  1  0.10114000  0.03728000  0.64469000  1.0
  O  O498  1  0.76489000  0.03716000  0.49420000  1.0
  O  O499  1  0.91940000  0.06745000  0.55021000  1.0
  O  O500  1  0.62379000  0.10193000  0.57370000  1.0
  O  O501  1  0.85452000  0.18277000  0.55937000  1.0
  O  O502  1  0.67375000  0.14820000  0.50862000  1.0
  O  O503  1  0.50136000  0.02100000  0.55345000  1.0
  O  O504  1  0.18995000  0.25178000  0.19744000  1.0
  O  O505  1  0.26961000  0.22446000  0.27751000  1.0
  O  O506  1  0.32862000  0.28621000  0.02504000  1.0
  O  O507  1  0.37708000  0.25929000  0.94047000  1.0
  O  O508  1  0.55733000  0.45733000  0.18051000  1.0
  O  O509  1  0.66140000  0.54800000  0.27564000  1.0
  O  O510  1  0.94123000  0.53393000  0.92484000  1.0
  O  O511  1  0.05476000  0.45374000  0.01725000  1.0
  O  O512  1  0.68345000  0.74961000  0.20356000  1.0
  O  O513  1  0.77211000  0.72501000  0.28342000  1.0
  O  O514  1  0.87940000  0.75727000  0.94282000  1.0
  O  O515  1  0.82384000  0.78490000  0.02705000  1.0
  O  O516  1  0.13196000  0.04829000  0.26639000  1.0
  O  O517  1  0.13951000  0.93708000  0.18334000  1.0
  O  O518  1  0.43132000  0.02655000  0.91943000  1.0
  O  O519  1  0.54115000  0.95247000  0.01358000  1.0
  O  O520  1  0.31716000  0.69361000  0.79541000  1.0
  O  O521  1  0.15894000  0.71196000  0.72592000  1.0
  O  O522  1  0.35291000  0.79029000  0.52722000  1.0
  O  O523  1  0.37622000  0.75707000  0.44209000  1.0
  O  O524  1  0.67029000  0.93022000  0.67917000  1.0
  O  O525  1  0.62546000  0.03592000  0.76282000  1.0
  O  O526  1  0.08258000  0.97405000  0.51172000  1.0
  O  O527  1  0.92175000  0.03424000  0.41722000  1.0
  O  O528  1  0.67446000  0.23826000  0.70972000  1.0
  O  O529  1  0.77747000  0.21911000  0.78675000  1.0
  O  O530  1  0.85776000  0.25239000  0.43338000  1.0
  O  O531  1  0.84374000  0.29205000  0.51913000  1.0
  O  O532  1  0.13994000  0.43142000  0.68090000  1.0
  O  O533  1  0.13575000  0.54301000  0.76225000  1.0
  O  O534  1  0.54640000  0.46384000  0.51268000  1.0
  O  O535  1  0.40296000  0.53318000  0.42032000  1.0
  O  O536  1  0.77209000  0.12768000  0.06198000  1.0
  O  O537  1  0.94000000  0.11658000  0.14065000  1.0
  O  O538  1  0.99072000  0.34589000  0.39779000  1.0
  O  O539  1  0.06456000  0.25177000  0.33245000  1.0
  O  O540  1  0.48581000  0.25295000  0.86220000  1.0
  O  O541  1  0.65459000  0.31874000  0.79109000  1.0
  O  O542  1  0.26514000  0.62424000  0.06402000  1.0
  O  O543  1  0.44188000  0.62079000  0.14189000  1.0
  O  O544  1  0.48404000  0.75536000  0.36346000  1.0
  O  O545  1  0.66168000  0.82367000  0.29415000  1.0
  O  O546  1  0.98612000  0.74664000  0.86346000  1.0
  O  O547  1  0.15597000  0.81236000  0.79158000  1.0
  O  O548  1  0.93150000  0.60595000  0.65044000  1.0
  O  O549  1  0.78600000  0.64344000  0.57485000  1.0
  O  O550  1  0.28015000  0.13671000  0.56693000  1.0
  O  O551  1  0.43857000  0.11292000  0.64439000  1.0
  O  O552  1  0.44222000  0.14234000  0.32729000  1.0
  O  O553  1  0.71915000  0.15221000  0.37636000  1.0
  O  O554  1  0.95600000  0.12101000  0.82205000  1.0
  O  O555  1  0.23027000  0.13014000  0.87591000  1.0
  O  O556  1  0.94212000  0.31732000  0.06517000  1.0
  O  O557  1  0.66588000  0.28708000  0.12131000  1.0
  O  O558  1  0.93878000  0.65412000  0.33513000  1.0
  O  O559  1  0.21248000  0.65216000  0.38326000  1.0
  O  O560  1  0.41248000  0.50169000  0.82412000  1.0
  O  O561  1  0.68611000  0.49213000  0.86116000  1.0
  O  O562  1  0.14685000  0.80812000  0.12530000  1.0
  O  O563  1  0.42352000  0.81251000  0.06330000  1.0
  O  O564  1  0.11658000  0.90545000  0.58342000  1.0
  O  O565  1  0.85254000  0.94067000  0.60666000  1.0
  O  O566  1  0.44453000  0.30121000  0.56464000  1.0
  O  O567  1  0.17866000  0.28254000  0.62502000  1.0
  Zn  Zn568  1  0.52750000  0.09566000  0.17800000  1.0
  Zn  Zn569  1  0.11446000  0.06609000  0.01880000  1.0
  Zn  Zn570  1  0.35101000  0.33464000  0.42981000  1.0
  Zn  Zn571  1  0.76046000  0.35377000  0.26804000  1.0
  Zn  Zn572  1  0.86088000  0.33002000  0.92658000  1.0
  Zn  Zn573  1  0.26426000  0.34779000  0.76661000  1.0
  Zn  Zn574  1  0.02562000  0.59818000  0.18303000  1.0
  Zn  Zn575  1  0.61560000  0.56429000  0.02344000  1.0
  Zn  Zn576  1  0.86251000  0.83687000  0.43095000  1.0
  Zn  Zn577  1  0.26674000  0.85272000  0.26652000  1.0
  Zn  Zn578  1  0.36271000  0.82562000  0.92702000  1.0
  Zn  Zn579  1  0.75865000  0.83849000  0.76683000  1.0
  Zn  Zn580  1  0.52360000  0.58797000  0.67667000  1.0
  Zn  Zn581  1  0.10548000  0.57226000  0.52201000  1.0
  Zn  Zn582  1  0.02521000  0.09145000  0.67711000  1.0
  Zn  Zn583  1  0.61379000  0.07289000  0.51879000  1.0
