# generated using pymatgen
data_Cu2H69C41(N2O3)4
_symmetry_space_group_name_H-M   'P 1'
_cell_length_a   9.74036667
_cell_length_b   30.13642589
_cell_length_c   40.48240000
_cell_angle_alpha   94.08748347
_cell_angle_beta   91.26200000
_cell_angle_gamma   90.85571540
_symmetry_Int_Tables_number   1
_chemical_formula_structural   Cu2H69C41(N2O3)4
_chemical_formula_sum   'Cu8 H276 C164 N32 O48'
_cell_volume   11848.47259395
_cell_formula_units_Z   4
loop_
 _symmetry_equiv_pos_site_id
 _symmetry_equiv_pos_as_xyz
  1  'x, y, z'
loop_
 _atom_site_type_symbol
 _atom_site_label
 _atom_site_symmetry_multiplicity
 _atom_site_fract_x
 _atom_site_fract_y
 _atom_site_fract_z
 _atom_site_occupancy
  C  C0  1  0.81021000  0.06945000  0.99777333  1.0
  C  C1  1  0.20001667  0.04732667  0.54491000  1.0
  C  C2  1  0.26321667  0.10354667  0.62566667  1.0
  C  C3  1  0.78566333  0.05346333  0.96211333  1.0
  C  C4  1  0.26844000  0.09369000  0.66162667  1.0
  C  C5  1  0.95108667  0.17008667  0.04058333  1.0
  C  C6  1  0.90033000  0.12558000  0.11835667  1.0
  C  C7  1  0.25230000  0.15028000  0.50633667  1.0
  C  C8  1  0.92913333  0.14459333  0.15320667  1.0
  C  C9  1  0.24423667  0.15766667  0.46991000  1.0
  C  C10  1  0.30342000  0.20835000  0.58758333  1.0
  C  C11  1  0.34643000  0.22194000  0.30891667  1.0
  C  C12  1  0.09224000  0.18089000  0.19268000  1.0
  C  C13  1  0.08163667  0.20412667  0.13660333  1.0
  C  C14  1  0.23383000  0.20372000  0.19804000  1.0
  C  C15  1  0.12019667  0.19850667  0.98110667  1.0
  C  C16  1  0.00937000  0.21493000  0.03413667  1.0
  C  C17  1  0.13136333  0.21043333  0.94480667  1.0
  C  C18  1  0.23061667  0.21033667  0.42772333  1.0
  C  C19  1  0.41983667  0.21650667  0.46815000  1.0
  C  C20  1  0.22359000  0.22678000  0.14200333  1.0
  C  C21  1  0.38584333  0.26358333  0.18225667  1.0
  C  C22  1  0.02063000  0.27129000  0.99476333  1.0
  C  C23  1  0.45381333  0.26332333  0.45714333  1.0
  C  C24  1  0.26622333  0.25716333  0.41740667  1.0
  C  C25  1  0.53108667  0.25688667  0.63578667  1.0
  C  C26  1  0.32957000  0.25647000  0.59868000  1.0
  C  C27  1  0.58846333  0.26741333  0.67124667  1.0
  C  C28  1  0.16779000  0.27169000  0.90846333  1.0
  C  C29  1  0.53181000  0.29311000  0.23275000  1.0
  C  C30  1  0.39375667  0.29812667  0.21326000  1.0
  C  C31  1  0.32075667  0.27933667  0.90002667  1.0
  C  C32  1  0.65232000  0.29074000  0.37202000  1.0
  C  C33  1  0.60356000  0.31896000  0.40306000  1.0
  C  C34  1  0.48417667  0.27703667  0.32345667  1.0
  C  C35  1  0.59192667  0.30228667  0.33893000  1.0
  C  C36  1  0.45403333  0.27793333  0.29034000  1.0
  C  C37  1  0.52817333  0.30449333  0.26976667  1.0
  C  C38  1  0.61682667  0.30980667  0.83455000  1.0
  C  C39  1  0.66109000  0.32215000  0.80344667  1.0
  C  C40  1  0.03060667  0.28158667  0.95836333  1.0
  C  C41  1  0.44844667  0.31165667  0.41036333  1.0
  C  C42  1  0.34141667  0.30687667  0.64835000  1.0
  C  C43  1  0.39991667  0.31563667  0.68382333  1.0
  C  C44  1  0.61378000  0.32372000  0.71737333  1.0
  C  C45  1  0.36998667  0.32893667  0.90324667  1.0
  C  C46  1  0.20788333  0.04214333  0.70231333  1.0
  C  C47  1  0.51979667  0.33262667  0.89088667  1.0
  C  C48  1  0.65906000  0.33285000  0.31959000  1.0
  C  C49  1  0.62732667  0.33399667  0.28545000  1.0
  C  C50  1  0.37822333  0.34699333  0.20325667  1.0
  C  C51  1  0.53175000  0.33798000  0.85423333  1.0
  C  C52  1  0.36418667  0.34972667  0.93954667  1.0
  C  C53  1  0.24993000  0.35379000  0.18096000  1.0
  C  C54  1  0.61696667  0.37441667  0.72889667  1.0
  C  C55  1  0.64133333  0.36898333  0.40087333  1.0
  C  C56  1  0.48488667  0.37616667  0.84016667  1.0
  C  C57  1  0.62122333  0.36293333  0.79138333  1.0
  C  C58  1  0.75566000  0.02380000  0.07720667  1.0
  C  C59  1  0.30947333  0.55439333  0.01304333  1.0
  C  C60  1  0.42768000  0.63498000  0.12574333  1.0
  C  C61  1  0.21823000  0.54323000  0.10101333  1.0
  C  C62  1  0.51788000  0.65135000  0.04064667  1.0
  C  C63  1  0.15122333  0.67591333  0.53853000  1.0
  C  C64  1  0.82867000  0.54746000  0.56321333  1.0
  C  C65  1  0.98759333  0.64259333  0.61151667  1.0
  C  C66  1  0.98292667  0.58034667  0.49089667  1.0
  C  C67  1  0.61924000  0.83463000  0.26327333  1.0
  C  C68  1  0.54753333  0.86047333  0.23608333  1.0
  C  C69  1  0.60296000  0.90951000  0.23721333  1.0
  C  C70  1  0.67493000  0.77768000  0.85550000  1.0
  C  C71  1  0.64177667  0.79829667  0.89071333  1.0
  C  C72  1  0.62989667  0.84970667  0.89239000  1.0
  C  C73  1  0.69371000  0.38202000  0.76283333  1.0
  C  C74  1  0.68747333  0.40348333  0.70326333  1.0
  C  C75  1  0.50397333  0.81718333  0.72369000  1.0
  C  C76  1  0.37178333  0.83975333  0.71117333  1.0
  C  C77  1  0.39811333  0.89074333  0.71063000  1.0
  C  C78  1  0.55140667  0.89728667  0.40277333  1.0
  C  C79  1  0.50080333  0.86080333  0.42525000  1.0
  C  C80  1  0.57703333  0.81558333  0.41961333  1.0
  C  C81  1  0.47352333  0.85265333  0.31375000  1.0
  C  C82  1  0.60029667  0.85411667  0.29829667  1.0
  C  C83  1  0.45802000  0.86631000  0.34626667  1.0
  C  C84  1  0.71313667  0.87128667  0.31788333  1.0
  C  C85  1  0.56795333  0.88251333  0.36658333  1.0
  C  C86  1  0.69715667  0.88533667  0.35157000  1.0
  C  C87  1  0.26253333  0.84118333  0.32636333  1.0
  C  C88  1  0.48742000  0.77932000  0.81070333  1.0
  C  C89  1  0.60647667  0.79798667  0.82623667  1.0
  C  C90  1  0.44689333  0.78888333  0.77943667  1.0
  C  C91  1  0.67556000  0.83109000  0.80956333  1.0
  C  C92  1  0.52157333  0.81801333  0.76097000  1.0
  C  C93  1  0.63343333  0.84105333  0.77737333  1.0
  C  C94  1  0.32734667  0.73247667  0.79327000  1.0
  C  C95  1  0.52673667  0.38789667  0.80999667  1.0
  C  C96  1  0.41718667  0.44291667  0.83345000  1.0
  C  C97  1  0.43239000  0.46844000  0.97543667  1.0
  C  C98  1  0.21692667  0.46675667  0.94476667  1.0
  C  C99  1  0.28348667  0.53386667  0.97831333  1.0
  C  C100  1  0.22035333  0.41568333  0.94092000  1.0
  C  C101  1  0.43534667  0.41741667  0.97226667  1.0
  C  C102  1  0.73975333  0.98310333  0.14535333  1.0
  C  C103  1  0.53841000  0.94368000  0.12078000  1.0
  C  C104  1  0.69563333  0.97990333  0.08548667  1.0
  C  C105  1  0.47538000  0.94356000  0.15514333  1.0
  C  C106  1  0.67575667  0.98175667  0.17980333  1.0
  C  C107  1  0.52256667  0.93993667  0.21446000  1.0
  C  C108  1  0.68248667  0.70373667  0.97080333  1.0
  C  C109  1  0.47070333  0.73394333  0.99317333  1.0
  C  C110  1  0.61064667  0.68414667  0.02515000  1.0
  C  C111  1  0.43103333  0.74861333  0.95848000  1.0
  C  C112  1  0.63870667  0.71779667  0.93643000  1.0
  C  C113  1  0.51793333  0.77434333  0.90656667  1.0
  C  C114  1  0.78665333  0.98906333  0.92256667  1.0
  C  C115  1  0.64319000  0.98785000  0.97029667  1.0
  C  C116  1  0.63265000  0.93686000  0.96564667  1.0
  C  C117  1  0.77793333  0.93807333  0.91768000  1.0
  C  C118  1  0.64468000  0.87089000  0.92828000  1.0
  C  C119  1  0.58222667  0.71013667  0.19443000  1.0
  C  C120  1  0.38829667  0.73164667  0.16089667  1.0
  C  C121  1  0.45318000  0.65351000  0.16085333  1.0
  C  C122  1  0.43866000  0.78036000  0.16535333  1.0
  C  C123  1  0.63301333  0.75864333  0.19792000  1.0
  C  C124  1  0.56539333  0.83685333  0.20086333  1.0
  C  C125  1  0.06020333  0.44885333  0.14510333  1.0
  C  C126  1  0.29831000  0.47166000  0.15210000  1.0
  C  C127  1  0.13152333  0.51801333  0.12411333  1.0
  C  C128  1  0.33624333  0.42381333  0.15974667  1.0
  C  C129  1  0.09739000  0.40148000  0.15294333  1.0
  C  C130  1  0.21151667  0.70432667  0.64071667  1.0
  C  C131  1  0.04584000  0.73171000  0.68057667  1.0
  C  C132  1  0.99525000  0.66351000  0.64636000  1.0
  C  C133  1  0.11610333  0.77795333  0.68244667  1.0
  C  C134  1  0.28176333  0.75038333  0.64250667  1.0
  C  C135  1  0.33134000  0.81933000  0.67564333  1.0
  C  C136  1  0.33039667  0.98586667  0.49005667  1.0
  C  C137  1  0.23383667  0.92514667  0.51849333  1.0
  C  C138  1  0.16227667  0.99997667  0.53352333  1.0
  C  C139  1  0.34955000  0.89493000  0.50587000  1.0
  C  C140  1  0.44736000  0.95562000  0.47772667  1.0
  C  C141  1  0.51556667  0.87871667  0.46247333  1.0
  C  C142  1  0.79958000  0.48560000  0.61954667  1.0
  C  C143  1  0.57389667  0.46674667  0.59529000  1.0
  C  C144  1  0.73509333  0.50748333  0.56426000  1.0
  C  C145  1  0.52313333  0.45605333  0.62942000  1.0
  C  C146  1  0.74745000  0.47417000  0.65364667  1.0
  C  C147  1  0.58308667  0.42877667  0.68254000  1.0
  C  C148  1  0.92919000  0.48725000  0.42492333  1.0
  C  C149  1  0.76234000  0.51380000  0.46451333  1.0
  C  C150  1  0.97093333  0.55795333  0.45657667  1.0
  C  C151  1  0.70090000  0.46653000  0.46490667  1.0
  C  C152  1  0.86908000  0.43982000  0.42522333  1.0
  C  C153  1  0.66457667  0.39431667  0.43522000  1.0
  C  C154  1  0.43448667  0.74845667  0.50910667  1.0
  C  C155  1  0.22212000  0.72906000  0.47831000  1.0
  C  C156  1  0.24560667  0.71565667  0.53701000  1.0
  C  C157  1  0.29780333  0.73463333  0.44576333  1.0
  C  C158  1  0.50791667  0.75300667  0.47635000  1.0
  C  C159  1  0.48081667  0.77387667  0.41908667  1.0
  C  C160  1  0.34838333  0.01685333  0.65612000  1.0
  C  C161  1  0.31936000  0.96829000  0.66389000  1.0
  C  C162  1  0.17906000  0.99357000  0.70959667  1.0
  C  C163  1  0.26564000  0.91812000  0.70733333  1.0
  Cu  Cu164  1  0.72825667  0.11404667  0.05926333  1.0
  Cu  Cu165  1  0.97889000  0.07914000  0.05736000  1.0
  Cu  Cu166  1  0.38972000  0.12013000  0.56411333  1.0
  Cu  Cu167  1  0.12138667  0.13515667  0.56833000  1.0
  Cu  Cu168  1  0.47443333  0.56905333  0.07254000  1.0
  Cu  Cu169  1  0.26097333  0.62216333  0.06572667  1.0
  Cu  Cu170  1  0.88059667  0.63708667  0.54464333  1.0
  Cu  Cu171  1  0.09671000  0.58702000  0.55748333  1.0
  H  H172  1  0.87513667  0.06525667  0.94832667  1.0
  H  H173  1  0.69192000  0.06897000  0.95211333  1.0
  H  H174  1  0.29676000  0.05518000  0.71807333  1.0
  H  H175  1  0.11653000  0.06187000  0.70973667  1.0
  H  H176  1  0.19231333  0.11566333  0.67442000  1.0
  H  H177  1  0.37173000  0.10311000  0.67244333  1.0
  H  H178  1  0.14098000  0.14222000  0.15062333  1.0
  H  H179  1  0.08869333  0.15191333  0.20822000  1.0
  H  H180  1  0.92214000  0.11639000  0.16940667  1.0
  H  H181  1  0.84757333  0.16850333  0.16074000  1.0
  H  H182  1  0.10130667  0.16203667  0.98112000  1.0
  H  H183  1  0.13846000  0.14766000  0.46106000  1.0
  H  H184  1  0.31681000  0.13497000  0.45653000  1.0
  H  H185  1  0.28218667  0.19255667  0.30993000  1.0
  H  H186  1  0.01187667  0.20449667  0.20155667  1.0
  H  H187  1  0.07115000  0.19287000  0.10993667  1.0
  H  H188  1  0.30426000  0.20317000  0.13333333  1.0
  H  H189  1  0.24549000  0.21507000  0.22463333  1.0
  H  H190  1  0.31457000  0.17873000  0.19233667  1.0
  H  H191  1  0.91364667  0.21174667  0.98759667  1.0
  H  H192  1  0.22078333  0.20618333  0.99399000  1.0
  H  H193  1  0.11541667  0.21856667  0.04491667  1.0
  H  H194  1  0.22082333  0.19286333  0.93375667  1.0
  H  H195  1  0.03748667  0.19810667  0.93063667  1.0
  H  H196  1  0.21351333  0.22559333  0.47805333  1.0
  H  H197  1  0.28137333  0.18544333  0.41057333  1.0
  H  H198  1  0.11769333  0.20512333  0.42442000  1.0
  H  H199  1  0.44734333  0.21620333  0.49492333  1.0
  H  H200  1  0.48590333  0.19202333  0.45440667  1.0
  H  H201  1  0.55759667  0.22205667  0.62788333  1.0
  H  H202  1  0.56662333  0.25814333  0.23016000  1.0
  H  H203  1  0.33375667  0.26667667  0.87383667  1.0
  H  H204  1  0.38823667  0.25888667  0.91515667  1.0
  H  H205  1  0.63565333  0.25482333  0.37502333  1.0
  H  H206  1  0.00046000  0.22899000  0.14220667  1.0
  H  H207  1  0.17193000  0.26483000  0.18380000  1.0
  H  H208  1  0.22732333  0.25567333  0.12639333  1.0
  H  H209  1  0.46482667  0.23745667  0.18361000  1.0
  H  H210  1  0.94501667  0.23995667  0.04787667  1.0
  H  H211  1  0.23706333  0.26829333  0.95753667  1.0
  H  H212  1  0.93350000  0.27110000  0.94478333  1.0
  H  H213  1  0.12315000  0.24557000  0.89036000  1.0
  H  H214  1  0.46667333  0.24261333  0.40748333  1.0
  H  H215  1  0.56564667  0.26921667  0.46132000  1.0
  H  H216  1  0.23468333  0.25850333  0.39092333  1.0
  H  H217  1  0.33313667  0.23855667  0.64747333  1.0
  H  H218  1  0.58415333  0.27912333  0.61914667  1.0
  H  H219  1  0.23091333  0.27405333  0.59548000  1.0
  H  H220  1  0.40363333  0.27094333  0.58171000  1.0
  H  H221  1  0.54911333  0.24215333  0.68762333  1.0
  H  H222  1  0.70207667  0.26441667  0.67055667  1.0
  H  H223  1  0.61412333  0.31256333  0.22146333  1.0
  H  H224  1  0.30822667  0.29111667  0.22990667  1.0
  H  H225  1  0.57903667  0.30342667  0.89808333  1.0
  H  H226  1  0.76598333  0.29412333  0.37111333  1.0
  H  H227  1  0.66524667  0.30725667  0.42395000  1.0
  H  H228  1  0.65732667  0.27995667  0.84416667  1.0
  H  H229  1  0.73381333  0.30140333  0.79000333  1.0
  H  H230  1  0.41689000  0.28057000  0.16001667  1.0
  H  H231  1  0.92911000  0.28852000  0.00507667  1.0
  H  H232  1  0.11300000  0.28554000  0.00864333  1.0
  H  H233  1  0.04154667  0.31825667  0.95754667  1.0
  H  H234  1  0.11022667  0.30221667  0.90340333  1.0
  H  H235  1  0.39968667  0.28855667  0.47328333  1.0
  H  H236  1  0.20518667  0.28214667  0.43212333  1.0
  H  H237  1  0.38900000  0.31735000  0.38731000  1.0
  H  H238  1  0.22766333  0.30911333  0.64933333  1.0
  H  H239  1  0.35465000  0.29109000  0.69995333  1.0
  H  H240  1  0.72195667  0.31228667  0.71786000  1.0
  H  H241  1  0.55880333  0.30493333  0.73588000  1.0
  H  H242  1  0.37893000  0.33356000  0.63295333  1.0
  H  H243  1  0.58991000  0.33469000  0.66734333  1.0
  H  H244  1  0.47119667  0.35622667  0.18977333  1.0
  H  H245  1  0.30023667  0.34781667  0.88755333  1.0
  H  H246  1  0.74452333  0.35292333  0.32994000  1.0
  H  H247  1  0.68930000  0.35498000  0.27086667  1.0
  H  H248  1  0.27368667  0.33744667  0.95215333  1.0
  H  H249  1  0.45321333  0.33699333  0.95359667  1.0
  H  H250  1  0.26123000  0.33439000  0.15682667  1.0
  H  H251  1  0.16019333  0.33970333  0.19340667  1.0
  H  H252  1  0.41455667  0.33778667  0.42905000  1.0
  H  H253  1  0.36681333  0.34898333  0.69349667  1.0
  H  H254  1  0.57502000  0.36165000  0.90371667  1.0
  H  H255  1  0.37277333  0.36955333  0.22609667  1.0
  H  H256  1  0.79897667  0.36842667  0.76091667  1.0
  H  H257  1  0.73726000  0.37114000  0.38702333  1.0
  H  H258  1  0.73376000  0.37505000  0.45089667  1.0
  H  H259  1  0.57734667  0.80020667  0.26260667  1.0
  H  H260  1  0.73042333  0.83212333  0.25793000  1.0
  H  H261  1  0.43586000  0.86114000  0.24115000  1.0
  H  H262  1  0.59422667  0.92464667  0.26287333  1.0
  H  H263  1  0.71414000  0.91014000  0.23165333  1.0
  H  H264  1  0.78790667  0.78047667  0.85249000  1.0
  H  H265  1  0.65464000  0.74121000  0.85386000  1.0
  H  H266  1  0.73577333  0.79208333  0.90559000  1.0
  H  H267  1  0.71352333  0.86256333  0.87756333  1.0
  H  H268  1  0.53060000  0.85928000  0.88113667  1.0
  H  H269  1  0.70816333  0.41833333  0.76911000  1.0
  H  H270  1  0.51005333  0.38564333  0.73284000  1.0
  H  H271  1  0.75759333  0.42901333  0.71592000  1.0
  H  H272  1  0.75511333  0.38269333  0.68699333  1.0
  H  H273  1  0.56049333  0.38554333  0.38662667  1.0
  H  H274  1  0.50727000  0.78177000  0.71425000  1.0
  H  H275  1  0.59543667  0.83256667  0.71279333  1.0
  H  H276  1  0.28708000  0.83409000  0.72834667  1.0
  H  H277  1  0.45173333  0.90326333  0.73404667  1.0
  H  H278  1  0.46900333  0.89681333  0.69031667  1.0
  H  H279  1  0.47674667  0.92476667  0.40387667  1.0
  H  H280  1  0.65054333  0.91172333  0.41294333  1.0
  H  H281  1  0.39035333  0.85445333  0.41891667  1.0
  H  H282  1  0.62852667  0.81331667  0.39545667  1.0
  H  H283  1  0.66273667  0.81325667  0.43786667  1.0
  H  H284  1  0.81411333  0.87306333  0.30740000  1.0
  H  H285  1  0.78626333  0.89789333  0.36592000  1.0
  H  H286  1  0.15521667  0.83149667  0.32444000  1.0
  H  H287  1  0.76899000  0.84653000  0.82014667  1.0
  H  H288  1  0.69535667  0.86394667  0.76436333  1.0
  H  H289  1  0.25394667  0.70514667  0.79227000  1.0
  H  H290  1  0.37083333  0.47507333  0.83793333  1.0
  H  H291  1  0.23841667  0.47235667  0.99579000  1.0
  H  H292  1  0.48981667  0.48163667  0.95467000  1.0
  H  H293  1  0.48862000  0.47924000  0.99871000  1.0
  H  H294  1  0.10736333  0.47664333  0.94511333  1.0
  H  H295  1  0.26395333  0.48039333  0.92270667  1.0
  H  H296  1  0.35987000  0.54816000  0.96183667  1.0
  H  H297  1  0.18113000  0.54525000  0.96989333  1.0
  H  H298  1  0.41432667  0.41124667  0.92158333  1.0
  H  H299  1  0.15990000  0.40245000  0.96119667  1.0
  H  H300  1  0.16832333  0.40432333  0.91703333  1.0
  H  H301  1  0.54472667  0.40728667  0.97192667  1.0
  H  H302  1  0.38814000  0.40428000  0.99448667  1.0
  H  H303  1  0.57498000  0.01120000  0.12163667  1.0
  H  H304  1  0.80933667  0.95429667  0.14154667  1.0
  H  H305  1  0.80354667  0.01399667  0.14519667  1.0
  H  H306  1  0.45286000  0.94500000  0.10222333  1.0
  H  H307  1  0.59311333  0.91186333  0.11544000  1.0
  H  H308  1  0.77500667  0.95371667  0.08346000  1.0
  H  H309  1  0.61554667  0.97100667  0.06600000  1.0
  H  H310  1  0.64331667  0.91432667  0.17563667  1.0
  H  H311  1  0.41074667  0.97348667  0.15952333  1.0
  H  H312  1  0.40673667  0.91376667  0.15522000  1.0
  H  H313  1  0.76017000  0.98063000  0.19865333  1.0
  H  H314  1  0.61855667  0.01303667  0.18531000  1.0
  H  H315  1  0.41378333  0.92798333  0.21261000  1.0
  H  H316  1  0.51718333  0.97373333  0.22735667  1.0
  H  H317  1  0.50824000  0.66759000  0.97993333  1.0
  H  H318  1  0.75001667  0.73029667  0.98328667  1.0
  H  H319  1  0.74444000  0.67313000  0.96717667  1.0
  H  H320  1  0.37483333  0.72574333  0.00595667  1.0
  H  H321  1  0.52115333  0.76278333  0.00758333  1.0
  H  H322  1  0.71508000  0.66960000  0.02446000  1.0
  H  H323  1  0.61990000  0.71467000  0.04223667  1.0
  H  H324  1  0.61108000  0.78354000  0.95321333  1.0
  H  H325  1  0.36643333  0.72214333  0.94495000  1.0
  H  H326  1  0.36758333  0.77891333  0.96187000  1.0
  H  H327  1  0.73335333  0.72357333  0.92248667  1.0
  H  H328  1  0.58053333  0.68992333  0.92272667  1.0
  H  H329  1  0.43114667  0.79785667  0.90888333  1.0
  H  H330  1  0.47705000  0.74609000  0.88984333  1.0
  H  H331  1  0.85615333  0.99076333  0.97103333  1.0
  H  H332  1  0.70434000  0.00356000  0.90734667  1.0
  H  H333  1  0.88726000  0.99999000  0.91316333  1.0
  H  H334  1  0.63499000  0.99760000  0.99718667  1.0
  H  H335  1  0.55459000  0.00236000  0.95722667  1.0
  H  H336  1  0.56523000  0.93152000  0.91668667  1.0
  H  H337  1  0.71258333  0.92259333  0.98170000  1.0
  H  H338  1  0.53059000  0.92650000  0.97453667  1.0
  H  H339  1  0.78467000  0.92962000  0.89068000  1.0
  H  H340  1  0.86861333  0.92383333  0.93009000  1.0
  H  H341  1  0.55529000  0.85903000  0.94206000  1.0
  H  H342  1  0.73863333  0.85818333  0.94034333  1.0
  H  H343  1  0.57008667  0.70479667  0.14341000  1.0
  H  H344  1  0.51816333  0.70345333  0.21604000  1.0
  H  H345  1  0.67380667  0.68855667  0.19514000  1.0
  H  H346  1  0.33517000  0.72667000  0.13633667  1.0
  H  H347  1  0.31145667  0.72599667  0.18018333  1.0
  H  H348  1  0.52933333  0.63168333  0.17230000  1.0
  H  H349  1  0.35666000  0.65041000  0.17477000  1.0
  H  H350  1  0.44921333  0.78337333  0.21614333  1.0
  H  H351  1  0.50333333  0.78781333  0.14401667  1.0
  H  H352  1  0.34692000  0.80188000  0.16477333  1.0
  H  H353  1  0.69303333  0.76385333  0.22147000  1.0
  H  H354  1  0.70493000  0.76420000  0.17754333  1.0
  H  H355  1  0.50634667  0.85650667  0.18353667  1.0
  H  H356  1  0.67466333  0.84003333  0.19369000  1.0
  H  H357  1  0.19632667  0.45528667  0.10701667  1.0
  H  H358  1  0.02893333  0.46753333  0.16840333  1.0
  H  H359  1  0.96932667  0.44641667  0.12788000  1.0
  H  H360  1  0.38850333  0.48657333  0.14059000  1.0
  H  H361  1  0.28069333  0.49148333  0.17585333  1.0
  H  H362  1  0.02497000  0.51763000  0.11353667  1.0
  H  H363  1  0.12665000  0.53852000  0.14801000  1.0
  H  H364  1  0.19923667  0.41778667  0.19773333  1.0
  H  H365  1  0.36740333  0.40495333  0.13654000  1.0
  H  H366  1  0.42655333  0.42661000  0.17703000  1.0
  H  H367  1  0.00769667  0.38662667  0.16495000  1.0
  H  H368  1  0.11366667  0.38152667  0.12915333  1.0
  H  H369  1  0.01651333  0.72669333  0.62987667  1.0
  H  H370  1  0.26368000  0.68335000  0.65858667  1.0
  H  H371  1  0.22627333  0.68865333  0.61540333  1.0
  H  H372  1  0.93479000  0.73639000  0.68535333  1.0
  H  H373  1  0.08924333  0.71217333  0.70056667  1.0
  H  H374  1  0.05049333  0.64123333  0.66274000  1.0
  H  H375  1  0.88802667  0.66695667  0.65499000  1.0
  H  H376  1  0.31051000  0.75600000  0.69314667  1.0
  H  H377  1  0.06306000  0.79882000  0.66464333  1.0
  H  H378  1  0.10187667  0.79373667  0.70773333  1.0
  H  H379  1  0.39282667  0.74544667  0.63783000  1.0
  H  H380  1  0.23892000  0.76973000  0.62233667  1.0
  H  H381  1  0.26470000  0.84191000  0.66220333  1.0
  H  H382  1  0.42720333  0.81778333  0.66109333  1.0
  H  H383  1  0.35837333  0.97567333  0.54003000  1.0
  H  H384  1  0.24627333  0.98439333  0.47092333  1.0
  H  H385  1  0.37081667  0.02061667  0.49270667  1.0
  H  H386  1  0.20213667  0.91401667  0.54286000  1.0
  H  H387  1  0.14386333  0.92050333  0.50106000  1.0
  H  H388  1  0.07996333  0.00007333  0.51401667  1.0
  H  H389  1  0.11361667  0.98553667  0.55503000  1.0
  H  H390  1  0.31981333  0.90562333  0.45667333  1.0
  H  H391  1  0.43382667  0.89585667  0.52497667  1.0
  H  H392  1  0.30788667  0.86026667  0.50280000  1.0
  H  H393  1  0.48157000  0.96683000  0.45368000  1.0
  H  H394  1  0.53587333  0.96010333  0.49560000  1.0
  H  H395  1  0.52321000  0.84994000  0.47798333  1.0
  H  H396  1  0.61787333  0.89528333  0.46696333  1.0
  H  H397  1  0.64803333  0.53033333  0.60842667  1.0
  H  H398  1  0.85008333  0.45580333  0.60772333  1.0
  H  H399  1  0.87892333  0.51241333  0.62374000  1.0
  H  H400  1  0.48528000  0.47932000  0.58108667  1.0
  H  H401  1  0.60789000  0.43538000  0.58189333  1.0
  H  H402  1  0.78920333  0.47752333  0.55386667  1.0
  H  H403  1  0.64549000  0.51280000  0.54751667  1.0
  H  H404  1  0.67442667  0.41092667  0.63800667  1.0
  H  H405  1  0.47662333  0.48630333  0.64169667  1.0
  H  H406  1  0.44089667  0.43005667  0.62554667  1.0
  H  H407  1  0.83610667  0.46182667  0.66786667  1.0
  H  H408  1  0.71109000  0.50503000  0.66726667  1.0
  H  H409  1  0.48914000  0.40779000  0.67824000  1.0
  H  H410  1  0.55142000  0.45934000  0.69731333  1.0
  H  H411  1  0.96205333  0.49579333  0.47537333  1.0
  H  H412  1  0.87935333  0.50439333  0.40445000  1.0
  H  H413  1  0.04046667  0.48461667  0.41960667  1.0
  H  H414  1  0.74660333  0.53111333  0.48924333  1.0
  H  H415  1  0.70483000  0.53221000  0.44590333  1.0
  H  H416  1  0.07663000  0.55595000  0.44676333  1.0
  H  H417  1  0.90855000  0.57850000  0.44030333  1.0
  H  H418  1  0.66666667  0.45541667  0.41446667  1.0
  H  H419  1  0.74890333  0.44981333  0.48584000  1.0
  H  H420  1  0.58936333  0.46956333  0.46979667  1.0
  H  H421  1  0.88547000  0.42335000  0.40030667  1.0
  H  H422  1  0.92849667  0.42139667  0.44349333  1.0
  H  H423  1  0.56358667  0.39560667  0.44751000  1.0
  H  H424  1  0.35575333  0.68487333  0.49870667  1.0
  H  H425  1  0.39947667  0.78189667  0.51861667  1.0
  H  H426  1  0.51075333  0.73696333  0.52735000  1.0
  H  H427  1  0.14106333  0.70290333  0.47342333  1.0
  H  H428  1  0.17025333  0.76082333  0.48563000  1.0
  H  H429  1  0.32248667  0.71384667  0.55762000  1.0
  H  H430  1  0.18686333  0.74672333  0.54208667  1.0
  H  H431  1  0.36760333  0.79787333  0.45917000  1.0
  H  H432  1  0.33707000  0.70179000  0.43615000  1.0
  H  H433  1  0.22173000  0.74560000  0.42726000  1.0
  H  H434  1  0.59372667  0.77727667  0.48129000  1.0
  H  H435  1  0.55363667  0.72052667  0.46813667  1.0
  H  H436  1  0.40317333  0.77695333  0.39881667  1.0
  H  H437  1  0.54163333  0.74395333  0.41172667  1.0
  H  H438  1  0.14582333  0.03689333  0.65304667  1.0
  H  H439  1  0.36166333  0.01743333  0.62894667  1.0
  H  H440  1  0.44707667  0.02820667  0.66856667  1.0
  H  H441  1  0.38257333  0.97650333  0.71331000  1.0
  H  H442  1  0.22903333  0.95525333  0.64866333  1.0
  H  H443  1  0.40932333  0.94839333  0.65598000  1.0
  H  H444  1  0.16257333  0.99280333  0.73665667  1.0
  H  H445  1  0.08237667  0.98165667  0.69643333  1.0
  H  H446  1  0.19222000  0.90210000  0.68864667  1.0
  H  H447  1  0.21354000  0.91736000  0.73149333  1.0
  N  N448  1  0.23513000  0.04643000  0.66682333  1.0
  N  N449  1  0.06728000  0.16595000  0.15743667  1.0
  N  N450  1  0.00803667  0.22285667  0.99834667  1.0
  N  N451  1  0.27260000  0.20453000  0.46255333  1.0
  N  N452  1  0.24780667  0.24189667  0.17721333  1.0
  N  N453  1  0.14948667  0.25898667  0.94312667  1.0
  N  N454  1  0.41488000  0.26687000  0.42185000  1.0
  N  N455  1  0.38021000  0.26248000  0.63370667  1.0
  N  N456  1  0.55113667  0.31280667  0.68386000  1.0
  N  N457  1  0.28921667  0.48443667  0.97562000  1.0
  N  N458  1  0.36301333  0.39932333  0.94167333  1.0
  N  N459  1  0.63285333  0.98220333  0.11865000  1.0
  N  N460  1  0.58394667  0.94239667  0.18112667  1.0
  N  N461  1  0.56250333  0.69499333  0.99140667  1.0
  N  N462  1  0.55482667  0.75831667  0.93958000  1.0
  N  N463  1  0.77479333  0.00423333  0.95785000  1.0
  N  N464  1  0.64829000  0.92038000  0.93056000  1.0
  N  N465  1  0.50365000  0.70041000  0.16299667  1.0
  N  N466  1  0.51630000  0.78952000  0.19707333  1.0
  N  N467  1  0.17537000  0.47205000  0.12987000  1.0
  N  N468  1  0.22069333  0.40088333  0.17496333  1.0
  N  N469  1  0.06350000  0.70801000  0.64772667  1.0
  N  N470  1  0.26413000  0.77454000  0.67522667  1.0
  N  N471  1  0.27909000  0.97236000  0.52206333  1.0
  N  N472  1  0.40172667  0.90838667  0.47392333  1.0
  N  N473  1  0.68667667  0.50036667  0.59799667  1.0
  N  N474  1  0.63647667  0.43999667  0.65005000  1.0
  N  N475  1  0.91035333  0.51248333  0.45707000  1.0
  N  N476  1  0.72101667  0.44021667  0.43310667  1.0
  N  N477  1  0.31718333  0.71655333  0.50506000  1.0
  N  N478  1  0.41129333  0.76778333  0.45083000  1.0
  N  N479  1  0.29499333  0.96488333  0.69965000  1.0
  O  O480  1  0.67374333  0.05721333  0.07333333  1.0
  O  O481  1  0.71368333  0.09092333  0.01394333  1.0
  O  O482  1  0.92866667  0.06197667  0.01216000  1.0
  O  O483  1  0.99406667  0.10214667  0.10264000  1.0
  O  O484  1  0.15406333  0.05449333  0.05564667  1.0
  O  O485  1  0.32855333  0.06038333  0.54990667  1.0
  O  O486  1  0.37742333  0.10490333  0.60920000  1.0
  O  O487  1  0.14635667  0.11488667  0.61214000  1.0
  O  O488  1  0.09972667  0.07487667  0.55116333  1.0
  O  O489  1  0.57826000  0.10990000  0.56116667  1.0
  O  O490  1  0.81884667  0.16593667  0.04512000  1.0
  O  O491  1  0.78240000  0.13354000  0.10387333  1.0
  O  O492  1  0.03400333  0.13701333  0.04494000  1.0
  O  O493  1  0.55257333  0.13833333  0.06089333  1.0
  O  O494  1  0.40572000  0.18232000  0.57920333  1.0
  O  O495  1  0.36686000  0.13622000  0.51927000  1.0
  O  O496  1  0.13990667  0.15239667  0.52366000  1.0
  O  O497  1  0.93297667  0.14561667  0.57130333  1.0
  O  O498  1  0.17634667  0.19361667  0.58489000  1.0
  O  O499  1  0.36709667  0.24213667  0.28150667  1.0
  O  O500  1  0.41495000  0.24092000  0.33481000  1.0
  O  O501  1  0.88705000  0.02711000  0.07130000  1.0
  O  O502  1  0.41523000  0.54231000  0.03047667  1.0
  O  O503  1  0.50550667  0.60282667  0.11383333  1.0
  O  O504  1  0.34645667  0.53308667  0.09532333  1.0
  O  O505  1  0.57030000  0.61461000  0.05071667  1.0
  O  O506  1  0.38881000  0.66066000  0.04572333  1.0
  O  O507  1  0.16548333  0.57899333  0.08949667  1.0
  O  O508  1  0.32078333  0.64764333  0.10872667  1.0
  O  O509  1  0.23280333  0.58729333  0.02430333  1.0
  O  O510  1  0.62541000  0.53204000  0.07685667  1.0
  O  O511  1  0.10933000  0.65868000  0.06062333  1.0
  O  O512  1  0.01801000  0.68109000  0.53616000  1.0
  O  O513  1  0.77705667  0.58541667  0.55542667  1.0
  O  O514  1  0.89566333  0.65639333  0.59065333  1.0
  O  O515  1  0.89335667  0.61033667  0.50047000  1.0
  O  O516  1  0.07762000  0.56745000  0.51147000  1.0
  O  O517  1  0.07786000  0.61279000  0.60191667  1.0
  O  O518  1  0.96186667  0.54229667  0.56534333  1.0
  O  O519  1  0.20222333  0.63816333  0.54684667  1.0
  O  O520  1  0.72890333  0.67197333  0.53550333  1.0
  O  O521  1  0.24917667  0.55245667  0.56664667  1.0
  O  O522  1  0.32245667  0.85884667  0.35397000  1.0
  O  O523  1  0.34770000  0.83646000  0.30139000  1.0
  O  O524  1  0.34530333  0.75835333  0.76864333  1.0
  O  O525  1  0.41043000  0.74299000  0.81899667  1.0
  O  O526  1  0.48317333  0.43075333  0.80618333  1.0
  O  O527  1  0.41594333  0.41188333  0.85491667  1.0
