# generated using pymatgen
data_Cu4H57C93(N3O10)2
_symmetry_space_group_name_H-M   'P 1'
_cell_length_a   28.68490000
_cell_length_b   33.53570000
_cell_length_c   43.72110000
_cell_angle_alpha   90.00000000
_cell_angle_beta   97.80600000
_cell_angle_gamma   90.00000000
_symmetry_Int_Tables_number   1
_chemical_formula_structural   Cu4H57C93(N3O10)2
_chemical_formula_sum   'Cu16 H228 C372 N24 O80'
_cell_volume   41668.57976998
_cell_formula_units_Z   4
loop_
 _symmetry_equiv_pos_site_id
 _symmetry_equiv_pos_as_xyz
  1  'x, y, z'
loop_
 _atom_site_type_symbol
 _atom_site_label
 _atom_site_symmetry_multiplicity
 _atom_site_fract_x
 _atom_site_fract_y
 _atom_site_fract_z
 _atom_site_occupancy
  Cu  Cu0  1  0.83422000  0.38836000  0.59406000  1.0
  Cu  Cu1  1  0.72851000  0.39527000  0.56420000  1.0
  Cu  Cu2  1  0.76274000  0.32949000  0.60732000  1.0
  Cu  Cu3  1  0.84517000  0.35654000  0.65154000  1.0
  Cu  Cu4  1  0.75832000  0.38691000  0.25080000  1.0
  Cu  Cu5  1  0.86492000  0.40253000  0.28259000  1.0
  Cu  Cu6  1  0.82935000  0.36901000  0.21958000  1.0
  Cu  Cu7  1  0.74157000  0.37023000  0.18914000  1.0
  Cu  Cu8  1  0.27996000  0.37282000  0.07666000  1.0
  Cu  Cu9  1  0.17733000  0.40025000  0.06373000  1.0
  Cu  Cu10  1  0.20387000  0.32371000  0.09934000  1.0
  Cu  Cu11  1  0.29154000  0.34793000  0.13507000  1.0
  Cu  Cu12  1  0.31358000  0.38693000  0.77282000  1.0
  Cu  Cu13  1  0.41871000  0.40543000  0.79241000  1.0
  Cu  Cu14  1  0.38616000  0.33262000  0.75449000  1.0
  Cu  Cu15  1  0.30166000  0.36136000  0.71358000  1.0
  H  H16  1  0.07459000  0.02944000  0.97492000  1.0
  H  H17  1  0.07522000  0.01278000  0.91663000  1.0
  H  H18  1  0.07719000  0.89030000  0.99181000  1.0
  H  H19  1  0.15588000  0.88317000  0.86677000  1.0
  H  H20  1  0.13921000  0.80702000  0.87690000  1.0
  H  H21  1  0.01811000  0.74343000  0.95013000  1.0
  H  H22  1  0.00969000  0.75895000  0.00783000  1.0
  H  H23  1  0.12205000  0.94270000  0.07903000  1.0
  H  H24  1  0.08058000  0.87591000  0.94294000  1.0
  H  H25  1  0.09691000  0.86840000  0.08810000  1.0
  H  H26  1  0.58285000  0.00021000  0.47665000  1.0
  H  H27  1  0.54380000  0.99064000  0.41940000  1.0
  H  H28  1  0.60317000  0.86038000  0.48017000  1.0
  H  H29  1  0.57893000  0.87636000  0.33625000  1.0
  H  H30  1  0.58382000  0.79848000  0.34312000  1.0
  H  H31  1  0.54514000  0.71111000  0.44165000  1.0
  H  H32  1  0.56597000  0.72230000  0.50116000  1.0
  H  H33  1  0.70172000  0.90587000  0.55275000  1.0
  H  H34  1  0.57716000  0.85047000  0.43075000  1.0
  H  H35  1  0.69065000  0.82869000  0.56234000  1.0
  H  H36  1  0.83395000  0.38905000  0.37855000  1.0
  H  H37  1  0.73046000  0.32802000  0.42520000  1.0
  H  H38  1  0.68724000  0.31013000  0.37514000  1.0
  H  H39  1  0.71602000  0.32872000  0.32700000  1.0
  H  H40  1  0.75414000  0.37202000  0.46419000  1.0
  H  H41  1  0.88089000  0.36674000  0.42007000  1.0
  H  H42  1  0.92794000  0.37958000  0.46941000  1.0
  H  H43  1  0.89241000  0.38687000  0.51620000  1.0
  H  H44  1  0.28346000  0.38536000  0.87137000  1.0
  H  H45  1  0.35531000  0.34069000  0.95838000  1.0
  H  H46  1  0.42797000  0.33670000  0.93577000  1.0
  H  H47  1  0.43072000  0.35435000  0.88198000  1.0
  H  H48  1  0.30177000  0.37612000  0.97922000  1.0
  H  H49  1  0.22195000  0.35554000  0.88911000  1.0
  H  H50  1  0.14951000  0.35695000  0.91242000  1.0
  H  H51  1  0.15072000  0.36554000  0.96803000  1.0
  H  H52  1  0.64928000  0.35599000  0.66415000  1.0
  H  H53  1  0.49888000  0.37690000  0.64574000  1.0
  H  H54  1  0.50386000  0.37580000  0.59067000  1.0
  H  H55  1  0.57940000  0.36850000  0.57110000  1.0
  H  H56  1  0.49670000  0.35375000  0.69323000  1.0
  H  H57  1  0.64286000  0.39134000  0.70574000  1.0
  H  H58  1  0.63889000  0.40211000  0.76013000  1.0
  H  H59  1  0.56587000  0.39251000  0.78200000  1.0
  H  H60  1  0.95052000  0.37072000  0.19308000  1.0
  H  H61  1  0.09539000  0.33257000  0.21333000  1.0
  H  H62  1  0.07902000  0.30696000  0.26335000  1.0
  H  H63  1  0.00101000  0.31586000  0.28023000  1.0
  H  H64  1  0.08869000  0.33333333  0.15842000  1.0
  H  H65  1  0.98900000  0.42475000  0.17616000  1.0
  H  H66  1  0.00728000  0.46177000  0.13147000  1.0
  H  H67  1  0.06483000  0.43724000  0.09985000  1.0
  H  H68  1  0.43849000  0.35492000  0.16426000  1.0
  H  H69  1  0.56033000  0.38907000  0.12221000  1.0
  H  H70  1  0.51343000  0.38581000  0.07135000  1.0
  H  H71  1  0.42902000  0.37057000  0.06569000  1.0
  H  H72  1  0.59695000  0.35642000  0.16371000  1.0
  H  H73  1  0.47401000  0.39488000  0.20253000  1.0
  H  H74  1  0.52194000  0.40285000  0.25285000  1.0
  H  H75  1  0.60744000  0.39177000  0.25919000  1.0
  H  H76  1  0.99368000  0.37018000  0.68430000  1.0
  H  H77  1  0.11541000  0.40717000  0.64301000  1.0
  H  H78  1  0.06729000  0.40941000  0.59255000  1.0
  H  H79  1  0.98278000  0.39515000  0.58681000  1.0
  H  H80  1  0.15308000  0.37072000  0.68258000  1.0
  H  H81  1  0.03132000  0.40690000  0.72407000  1.0
  H  H82  1  0.07995000  0.41031000  0.77438000  1.0
  H  H83  1  0.16475000  0.39714000  0.77983000  1.0
  H  H84  1  0.83027000  0.51465000  0.62020000  1.0
  H  H85  1  0.88996000  0.58914000  0.64322000  1.0
  H  H86  1  0.84164000  0.61402000  0.65748000  1.0
  H  H87  1  0.08449000  0.71632000  0.92176000  1.0
  H  H88  1  0.03168000  0.82120000  0.87222000  1.0
  H  H89  1  0.05357000  0.65225000  0.90600000  1.0
  H  H90  1  0.00847000  0.64743000  0.87360000  1.0
  H  H91  1  0.06974000  0.64922000  0.86761000  1.0
  H  H92  1  0.94995000  0.78775000  0.82341000  1.0
  H  H93  1  0.00156000  0.81659000  0.81853000  1.0
  H  H94  1  0.99253000  0.76928000  0.79975000  1.0
  H  H95  1  0.84802000  0.68898000  0.81226000  1.0
  H  H96  1  0.05454000  0.63835000  0.76438000  1.0
  H  H97  1  0.80591000  0.64966000  0.77079000  1.0
  H  H98  1  0.83917000  0.48004000  0.75285000  1.0
  H  H99  1  0.87675000  0.52339000  0.75468000  1.0
  H  H100  1  0.81749000  0.45187000  0.70453000  1.0
  H  H101  1  0.01270000  0.59666000  0.72440000  1.0
  H  H102  1  0.83232000  0.58725000  0.62116000  1.0
  H  H103  1  0.81425000  0.52928000  0.75298000  1.0
  H  H104  1  0.80410000  0.50281000  0.24809000  1.0
  H  H105  1  0.84061000  0.60043000  0.24478000  1.0
  H  H106  1  0.88300000  0.57346000  0.22630000  1.0
  H  H107  1  0.97094000  0.82816000  0.03345000  1.0
  H  H108  1  0.10215000  0.78800000  0.08257000  1.0
  H  H109  1  0.89881000  0.80082000  0.04250000  1.0
  H  H110  1  0.89980000  0.75529000  0.06404000  1.0
  H  H111  1  0.89698000  0.80287000  0.08343000  1.0
  H  H112  1  0.07412000  0.71330000  0.11800000  1.0
  H  H113  1  0.10214000  0.75844000  0.13381000  1.0
  H  H114  1  0.04851000  0.74214000  0.14659000  1.0
  H  H115  1  0.96628000  0.61759000  0.09227000  1.0
  H  H116  1  0.87740000  0.76351000  0.17410000  1.0
  H  H117  1  0.91901000  0.56877000  0.11496000  1.0
  H  H118  1  0.70717000  0.55547000  0.12784000  1.0
  H  H119  1  0.74569000  0.59806000  0.13604000  1.0
  H  H120  1  0.71671000  0.49624000  0.16031000  1.0
  H  H121  1  0.82721000  0.71502000  0.19496000  1.0
  H  H122  1  0.86106000  0.55247000  0.25966000  1.0
  H  H123  1  0.76669000  0.55365000  0.11922000  1.0
  H  H124  1  0.79573000  0.29432000  0.12426000  1.0
  H  H125  1  0.87838000  0.22693000  0.10514000  1.0
  H  H126  1  0.84660000  0.24220000  0.06887000  1.0
  H  H127  1  0.16702000  0.02736000  0.02138000  1.0
  H  H128  1  0.03725000  0.98376000  0.04736000  1.0
  H  H129  1  0.19507000  0.09291000  0.03623000  1.0
  H  H130  1  0.14550000  0.12194000  0.01856000  1.0
  H  H131  1  0.16355000  0.12379000  0.05990000  1.0
  H  H132  1  0.98182000  0.06750000  0.05254000  1.0
  H  H133  1  0.99082000  0.02358000  0.07651000  1.0
  H  H134  1  0.01229000  0.07076000  0.09158000  1.0
  H  H135  1  0.98558000  0.17936000  0.99233000  1.0
  H  H136  1  0.08258000  0.17481000  0.14219000  1.0
  H  H137  1  0.94034000  0.23787000  0.00247000  1.0
  H  H138  1  0.98187000  0.35796000  0.10929000  1.0
  H  H139  1  0.95256000  0.36371000  0.07080000  1.0
  H  H140  1  0.88459000  0.39810000  0.12999000  1.0
  H  H141  1  0.03723000  0.23331000  0.15234000  1.0
  H  H142  1  0.81557000  0.23484000  0.10165000  1.0
  H  H143  1  0.94713000  0.40239000  0.09895000  1.0
  H  H144  1  0.75807000  0.21489000  0.65053000  1.0
  H  H145  1  0.76651000  0.11767000  0.69047000  1.0
  H  H146  1  0.79839000  0.12743000  0.65857000  1.0
  H  H147  1  0.13662000  0.00306000  0.88118000  1.0
  H  H148  1  0.04703000  0.90034000  0.86499000  1.0
  H  H149  1  0.12483000  0.06055000  0.85021000  1.0
  H  H150  1  0.09470000  0.05478000  0.81177000  1.0
  H  H151  1  0.06241000  0.06979000  0.84274000  1.0
  H  H152  1  0.98596000  0.93582000  0.79034000  1.0
  H  H153  1  0.99746000  0.89373000  0.81547000  1.0
  H  H154  1  0.95868000  0.93277000  0.82531000  1.0
  H  H155  1  0.01434000  0.04794000  0.71972000  1.0
  H  H156  1  0.88574000  0.04928000  0.83841000  1.0
  H  H157  1  0.95849000  0.09333000  0.69125000  1.0
  H  H158  1  0.88811000  0.24456000  0.76452000  1.0
  H  H159  1  0.85654000  0.20298000  0.77776000  1.0
  H  H160  1  0.84138000  0.27730000  0.72482000  1.0
  H  H161  1  0.82836000  0.09259000  0.80916000  1.0
  H  H162  1  0.73899000  0.14533000  0.65722000  1.0
  H  H163  1  0.90469000  0.19412000  0.75638000  1.0
  H  H164  1  0.24303000  0.46597000  0.16941000  1.0
  H  H165  1  0.27208000  0.55783000  0.21423000  1.0
  H  H166  1  0.28961000  0.50973000  0.22995000  1.0
  H  H167  1  0.62131000  0.72789000  0.36752000  1.0
  H  H168  1  0.48792000  0.75344000  0.39721000  1.0
  H  H169  1  0.62626000  0.69151000  0.32167000  1.0
  H  H170  1  0.59396000  0.64607000  0.32537000  1.0
  H  H171  1  0.57338000  0.68219000  0.29574000  1.0
  H  H172  1  0.42380000  0.67393000  0.35194000  1.0
  H  H173  1  0.42075000  0.71243000  0.37999000  1.0
  H  H174  1  0.41557000  0.72535000  0.33957000  1.0
  H  H175  1  0.48552000  0.54789000  0.31245000  1.0
  H  H176  1  0.41036000  0.71792000  0.23842000  1.0
  H  H177  1  0.44147000  0.50907000  0.27153000  1.0
  H  H178  1  0.40486000  0.53325000  0.11709000  1.0
  H  H179  1  0.38790000  0.57731000  0.13660000  1.0
  H  H180  1  0.34604000  0.48452000  0.10805000  1.0
  H  H181  1  0.36405000  0.67910000  0.19839000  1.0
  H  H182  1  0.23235000  0.51575000  0.20782000  1.0
  H  H183  1  0.42353000  0.54010000  0.15794000  1.0
  H  H184  1  0.32816000  0.51747000  0.75611000  1.0
  H  H185  1  0.35340000  0.61562000  0.72994000  1.0
  H  H186  1  0.40046000  0.59712000  0.75745000  1.0
  H  H187  1  0.64532000  0.71760000  0.53585000  1.0
  H  H188  1  0.58233000  0.82657000  0.56168000  1.0
  H  H189  1  0.63394000  0.65690000  0.56034000  1.0
  H  H190  1  0.63201000  0.66162000  0.60105000  1.0
  H  H191  1  0.57823000  0.65400000  0.57474000  1.0
  H  H192  1  0.55007000  0.78704000  0.63483000  1.0
  H  H193  1  0.55735000  0.83108000  0.61275000  1.0
  H  H194  1  0.50769000  0.79864000  0.60138000  1.0
  H  H195  1  0.59784000  0.65973000  0.69492000  1.0
  H  H196  1  0.41022000  0.69335000  0.58665000  1.0
  H  H197  1  0.55034000  0.61570000  0.72220000  1.0
  H  H198  1  0.42163000  0.48465000  0.64685000  1.0
  H  H199  1  0.39755000  0.53306000  0.63607000  1.0
  H  H200  1  0.37111000  0.45601000  0.67814000  1.0
  H  H201  1  0.36210000  0.65136000  0.61488000  1.0
  H  H202  1  0.34028000  0.58711000  0.76291000  1.0
  H  H203  1  0.45303000  0.52933000  0.66040000  1.0
  H  H204  1  0.37027000  0.22156000  0.69286000  1.0
  H  H205  1  0.45655000  0.16812000  0.67337000  1.0
  H  H206  1  0.41701000  0.15339000  0.63989000  1.0
  H  H207  1  0.68768000  0.00327000  0.49369000  1.0
  H  H208  1  0.60727000  0.93888000  0.55346000  1.0
  H  H209  1  0.70933000  0.07221000  0.50492000  1.0
  H  H210  1  0.64945000  0.09049000  0.50035000  1.0
  H  H211  1  0.68824000  0.09819000  0.53617000  1.0
  H  H212  1  0.54869000  0.00815000  0.57857000  1.0
  H  H213  1  0.58537000  0.97012000  0.59888000  1.0
  H  H214  1  0.59818000  0.02160000  0.60700000  1.0
  H  H215  1  0.48010000  0.10532000  0.51442000  1.0
  H  H216  1  0.64895000  0.14464000  0.63425000  1.0
  H  H217  1  0.42871000  0.15360000  0.53405000  1.0
  H  H218  1  0.42851000  0.32804000  0.59765000  1.0
  H  H219  1  0.47738000  0.29346000  0.60288000  1.0
  H  H220  1  0.38261000  0.32666000  0.63845000  1.0
  H  H221  1  0.59810000  0.19405000  0.65330000  1.0
  H  H222  1  0.39569000  0.15823000  0.67681000  1.0
  H  H223  1  0.42602000  0.28175000  0.57630000  1.0
  H  H224  1  0.19892000  0.21253000  0.14985000  1.0
  H  H225  1  0.20730000  0.12095000  0.19717000  1.0
  H  H226  1  0.23487000  0.12448000  0.16269000  1.0
  H  H227  1  0.58727000  0.98938000  0.36921000  1.0
  H  H228  1  0.48717000  0.89349000  0.36330000  1.0
  H  H229  1  0.56696000  0.05237000  0.34733000  1.0
  H  H230  1  0.54134000  0.04362000  0.30795000  1.0
  H  H231  1  0.50586000  0.06321000  0.33580000  1.0
  H  H232  1  0.40905000  0.93550000  0.29811000  1.0
  H  H233  1  0.42088000  0.89359000  0.32337000  1.0
  H  H234  1  0.39181000  0.93690000  0.33648000  1.0
  H  H235  1  0.44602000  0.03616000  0.21938000  1.0
  H  H236  1  0.33296000  0.06179000  0.34398000  1.0
  H  H237  1  0.39308000  0.08346000  0.19064000  1.0
  H  H238  1  0.34348000  0.25001000  0.25490000  1.0
  H  H239  1  0.31168000  0.21264000  0.27322000  1.0
  H  H240  1  0.29396000  0.27983000  0.21499000  1.0
  H  H241  1  0.27851000  0.10756000  0.31471000  1.0
  H  H242  1  0.17725000  0.14555000  0.16316000  1.0
  H  H243  1  0.35575000  0.19775000  0.25007000  1.0
  C  C244  1  0.08801000  0.00218000  0.96609000  1.0
  C  C245  1  0.08839000  0.99335000  0.93556000  1.0
  C  C246  1  0.10655000  0.95510000  0.93453000  1.0
  C  C247  1  0.10475000  0.96870000  0.98262000  1.0
  C  C248  1  0.11236000  0.93343000  0.90751000  1.0
  C  C249  1  0.12338000  0.89258000  0.90928000  1.0
  C  C250  1  0.14166000  0.87120000  0.88657000  1.0
  C  C251  1  0.13290000  0.83163000  0.89184000  1.0
  C  C252  1  0.10913000  0.83030000  0.91742000  1.0
  C  C253  1  0.08209000  0.79773000  0.92536000  1.0
  C  C254  1  0.06780000  0.79464000  0.95498000  1.0
  C  C255  1  0.03646000  0.76689000  0.96384000  1.0
  C  C256  1  0.03181000  0.77523000  0.99398000  1.0
  C  C257  1  0.05952000  0.80844000  0.00227000  1.0
  C  C258  1  0.06364000  0.82791000  0.03127000  1.0
  C  C259  1  0.08590000  0.86534000  0.03694000  1.0
  C  C260  1  0.09868000  0.88207000  0.06587000  1.0
  C  C261  1  0.11192000  0.92081000  0.06116000  1.0
  C  C262  1  0.10616000  0.92683000  0.02951000  1.0
  C  C263  1  0.10734000  0.96447000  0.01495000  1.0
  C  C264  1  0.58876000  0.97515000  0.46205000  1.0
  C  C265  1  0.56823000  0.97009000  0.43216000  1.0
  C  C266  1  0.58369000  0.93359000  0.42262000  1.0
  C  C267  1  0.61559000  0.94132000  0.46987000  1.0
  C  C268  1  0.57115000  0.91648000  0.39314000  1.0
  C  C269  1  0.58210000  0.87655000  0.38712000  1.0
  C  C270  1  0.58264000  0.86051000  0.35803000  1.0
  C  C271  1  0.58537000  0.81987000  0.36175000  1.0
  C  C272  1  0.58622000  0.81228000  0.39307000  1.0
  C  C273  1  0.57886000  0.77452000  0.40601000  1.0
  C  C274  1  0.58433000  0.76766000  0.43817000  1.0
  C  C275  1  0.56586000  0.73557000  0.45241000  1.0
  C  C276  1  0.57703000  0.74143000  0.48358000  1.0
  C  C277  1  0.60342000  0.77622000  0.48733000  1.0
  C  C278  1  0.62305000  0.79329000  0.51588000  1.0
  C  C279  1  0.64467000  0.83119000  0.51741000  1.0
  C  C280  1  0.67562000  0.84527000  0.54212000  1.0
  C  C281  1  0.68147000  0.88537000  0.53706000  1.0
  C  C282  1  0.65332000  0.89462000  0.50963000  1.0
  C  C283  1  0.64135000  0.93368000  0.49922000  1.0
  C  C284  1  0.82313000  0.43998000  0.64421000  1.0
  C  C285  1  0.80074000  0.38323000  0.52458000  1.0
  C  C286  1  0.79769000  0.28731000  0.66681000  1.0
  C  C287  1  0.92991000  0.37587000  0.63197000  1.0
  C  C288  1  0.66661000  0.36025000  0.60379000  1.0
  C  C289  1  0.74856000  0.45326000  0.21111000  1.0
  C  C290  1  0.79364000  0.37171000  0.31902000  1.0
  C  C291  1  0.81072000  0.36420000  0.15366000  1.0
  C  C292  1  0.66066000  0.37115000  0.21396000  1.0
  C  C293  1  0.92373000  0.35167000  0.24803000  1.0
  C  C294  1  0.28248000  0.43177000  0.12321000  1.0
  C  C295  1  0.22623000  0.37577000  0.01220000  1.0
  C  C296  1  0.24318000  0.28474000  0.15859000  1.0
  C  C297  1  0.37562000  0.35714000  0.11189000  1.0
  C  C298  1  0.11902000  0.37127000  0.10765000  1.0
  C  C299  1  0.32723000  0.44451000  0.72788000  1.0
  C  C300  1  0.36054000  0.38073000  0.83912000  1.0
  C  C301  1  0.35581000  0.30051000  0.69136000  1.0
  C  C302  1  0.21734000  0.37773000  0.73437000  1.0
  C  C303  1  0.48034000  0.37016000  0.75319000  1.0
  C  C304  1  0.73604000  0.33793000  0.34867000  1.0
  C  C305  1  0.81998000  0.37951000  0.49423000  1.0
  C  C306  1  0.79203000  0.37339000  0.46515000  1.0
  C  C307  1  0.81341000  0.36917000  0.43752000  1.0
  C  C308  1  0.86271000  0.37131000  0.43992000  1.0
  C  C309  1  0.89002000  0.37802000  0.46813000  1.0
  C  C310  1  0.86920000  0.38204000  0.49483000  1.0
  C  C311  1  0.77795000  0.35976000  0.34911000  1.0
  C  C312  1  0.80250000  0.37109000  0.37815000  1.0
  C  C313  1  0.78583000  0.36015000  0.40636000  1.0
  C  C314  1  0.74392000  0.33807000  0.40455000  1.0
  C  C315  1  0.71936000  0.32729000  0.37604000  1.0
  C  C316  1  0.39762000  0.35753000  0.89109000  1.0
  C  C317  1  0.22662000  0.37073000  0.97810000  1.0
  C  C318  1  0.26883000  0.37115000  0.96446000  1.0
  C  C319  1  0.26831000  0.36601000  0.93196000  1.0
  C  C320  1  0.22445000  0.36079000  0.91370000  1.0
  C  C321  1  0.18287000  0.36105000  0.92693000  1.0
  C  C322  1  0.18381000  0.36594000  0.95867000  1.0
  C  C323  1  0.35697000  0.37077000  0.87224000  1.0
  C  C324  1  0.31460000  0.37420000  0.88555000  1.0
  C  C325  1  0.31303000  0.36408000  0.91720000  1.0
  C  C326  1  0.35470000  0.35027000  0.93470000  1.0
  C  C327  1  0.39636000  0.34738000  0.92183000  1.0
  C  C328  1  0.57868000  0.36745000  0.59580000  1.0
  C  C329  1  0.52530000  0.37285000  0.73918000  1.0
  C  C330  1  0.52796000  0.36446000  0.70751000  1.0
  C  C331  1  0.57052000  0.37082000  0.69442000  1.0
  C  C332  1  0.61010000  0.38454000  0.71425000  1.0
  C  C333  1  0.60796000  0.39148000  0.74544000  1.0
  C  C334  1  0.56616000  0.38602000  0.75774000  1.0
  C  C335  1  0.62032000  0.36221000  0.61624000  1.0
  C  C336  1  0.61726000  0.36076000  0.64842000  1.0
  C  C337  1  0.57352000  0.36653000  0.66014000  1.0
  C  C338  1  0.53291000  0.37156000  0.63849000  1.0
  C  C339  1  0.53555000  0.37158000  0.60684000  1.0
  C  C340  1  0.00670000  0.32582000  0.25746000  1.0
  C  C341  1  0.08126000  0.38314000  0.12646000  1.0
  C  C342  1  0.07056000  0.36116000  0.15250000  1.0
  C  C343  1  0.03605000  0.37520000  0.17056000  1.0
  C  C344  1  0.01401000  0.41193000  0.16248000  1.0
  C  C345  1  0.02465000  0.43356000  0.13719000  1.0
  C  C346  1  0.05738000  0.41923000  0.11919000  1.0
  C  C347  1  0.97008000  0.34348000  0.23767000  1.0
  C  C348  1  0.97892000  0.35672000  0.20825000  1.0
  C  C349  1  0.02448000  0.35406000  0.19905000  1.0
  C  C350  1  0.05999000  0.33501000  0.21915000  1.0
  C  C351  1  0.05098000  0.32084000  0.24792000  1.0
  C  C352  1  0.44917000  0.37017000  0.08851000  1.0
  C  C353  1  0.60864000  0.37377000  0.21172000  1.0
  C  C354  1  0.58053000  0.36699000  0.18308000  1.0
  C  C355  1  0.53175000  0.37474000  0.17891000  1.0
  C  C356  1  0.51107000  0.38762000  0.20463000  1.0
  C  C357  1  0.53837000  0.39274000  0.23337000  1.0
  C  C358  1  0.58689000  0.38626000  0.23691000  1.0
  C  C359  1  0.42742000  0.36194000  0.11466000  1.0
  C  C360  1  0.45498000  0.36185000  0.14403000  1.0
  C  C361  1  0.50328000  0.37161000  0.14754000  1.0
  C  C362  1  0.52380000  0.38024000  0.12078000  1.0
  C  C363  1  0.49708000  0.37896000  0.09163000  1.0
  C  C364  1  0.00321000  0.39266000  0.60947000  1.0
  C  C365  1  0.16542000  0.38336000  0.73144000  1.0
  C  C366  1  0.13697000  0.37971000  0.70251000  1.0
  C  C367  1  0.08814000  0.38817000  0.69909000  1.0
  C  C368  1  0.06819000  0.39914000  0.72555000  1.0
  C  C369  1  0.09588000  0.40166000  0.75432000  1.0
  C  C370  1  0.14411000  0.39414000  0.75729000  1.0
  C  C371  1  0.98176000  0.38194000  0.63527000  1.0
  C  C372  1  0.00993000  0.37898000  0.66437000  1.0
  C  C373  1  0.05866000  0.38795000  0.66791000  1.0
  C  C374  1  0.07868000  0.39892000  0.64146000  1.0
  C  C375  1  0.05127000  0.40080000  0.61259000  1.0
  C  C376  1  0.06063000  0.77144000  0.89981000  1.0
  C  C377  1  0.06430000  0.72988000  0.90167000  1.0
  C  C378  1  0.04069000  0.70578000  0.87827000  1.0
  C  C379  1  0.01556000  0.72378000  0.85173000  1.0
  C  C380  1  0.01398000  0.76570000  0.84913000  1.0
  C  C381  1  0.03509000  0.78901000  0.87361000  1.0
  C  C382  1  0.04328000  0.66112000  0.88153000  1.0
  C  C383  1  0.98796000  0.78592000  0.82110000  1.0
  C  C384  1  0.94268000  0.69713000  0.82494000  1.0
  C  C385  1  0.91751000  0.67540000  0.80068000  1.0
  C  C386  1  0.94252000  0.65505000  0.77991000  1.0
  C  C387  1  0.99200000  0.65761000  0.78314000  1.0
  C  C388  1  0.01556000  0.68085000  0.80710000  1.0
  C  C389  1  0.86814000  0.67334000  0.79679000  1.0
  C  C390  1  0.84393000  0.65084000  0.77290000  1.0
  C  C391  1  0.86857000  0.62932000  0.75268000  1.0
  C  C392  1  0.91807000  0.63160000  0.75613000  1.0
  C  C393  1  0.94326000  0.60975000  0.73629000  1.0
  C  C394  1  0.99250000  0.61293000  0.73948000  1.0
  C  C395  1  0.01655000  0.63680000  0.76250000  1.0
  C  C396  1  0.84519000  0.60430000  0.72977000  1.0
  C  C397  1  0.91857000  0.58402000  0.71454000  1.0
  C  C398  1  0.84765000  0.54862000  0.69446000  1.0
  C  C399  1  0.84215000  0.51110000  0.74449000  1.0
  C  C400  1  0.82392000  0.47913000  0.69245000  1.0
  C  C401  1  0.85177000  0.58725000  0.64494000  1.0
  C  C402  1  0.83104000  0.51448000  0.64506000  1.0
  C  C403  1  0.84234000  0.54966000  0.66186000  1.0
  C  C404  1  0.83678000  0.51339000  0.70972000  1.0
  C  C405  1  0.82366000  0.47873000  0.66035000  1.0
  C  C406  1  0.03910000  0.81004000  0.05566000  1.0
  C  C407  1  0.98993000  0.81129000  0.05235000  1.0
  C  C408  1  0.96514000  0.78817000  0.07133000  1.0
  C  C409  1  0.99023000  0.76535000  0.09532000  1.0
  C  C410  1  0.03996000  0.76732000  0.10060000  1.0
  C  C411  1  0.06403000  0.78875000  0.08007000  1.0
  C  C412  1  0.91220000  0.78670000  0.06498000  1.0
  C  C413  1  0.06772000  0.74388000  0.12621000  1.0
  C  C414  1  0.96763000  0.69706000  0.10299000  1.0
  C  C415  1  0.94140000  0.66824000  0.11639000  1.0
  C  C416  1  0.91166000  0.68041000  0.13777000  1.0
  C  C417  1  0.90998000  0.72085000  0.14627000  1.0
  C  C418  1  0.93839000  0.74849000  0.13316000  1.0
  C  C419  1  0.94355000  0.62777000  0.10853000  1.0
  C  C420  1  0.91637000  0.59973000  0.12155000  1.0
  C  C421  1  0.88579000  0.61159000  0.14235000  1.0
  C  C422  1  0.88322000  0.65210000  0.15040000  1.0
  C  C423  1  0.85207000  0.66435000  0.17088000  1.0
  C  C424  1  0.85062000  0.70477000  0.17916000  1.0
  C  C425  1  0.87950000  0.73262000  0.16720000  1.0
  C  C426  1  0.85756000  0.58391000  0.15528000  1.0
  C  C427  1  0.82312000  0.63570000  0.18242000  1.0
  C  C428  1  0.79796000  0.56673000  0.18699000  1.0
  C  C429  1  0.74390000  0.56497000  0.13590000  1.0
  C  C430  1  0.74234000  0.51216000  0.17634000  1.0
  C  C431  1  0.85143000  0.57018000  0.23826000  1.0
  C  C432  1  0.79137000  0.51599000  0.22587000  1.0
  C  C433  1  0.81196000  0.55126000  0.21689000  1.0
  C  C434  1  0.76095000  0.54827000  0.16739000  1.0
  C  C435  1  0.75858000  0.49527000  0.20507000  1.0
  C  C436  1  0.10333000  0.00129000  0.03331000  1.0
  C  C437  1  0.13582000  0.03232000  0.03237000  1.0
  C  C438  1  0.12646000  0.07042000  0.04324000  1.0
  C  C439  1  0.08366000  0.07741000  0.05487000  1.0
  C  C440  1  0.05279000  0.04536000  0.05824000  1.0
  C  C441  1  0.06272000  0.00762000  0.04711000  1.0
  C  C442  1  0.15956000  0.10421000  0.03923000  1.0
  C  C443  1  0.00678000  0.05219000  0.07039000  1.0
  C  C444  1  0.04197000  0.13643000  0.03495000  1.0
  C  C445  1  0.01913000  0.17247000  0.03961000  1.0
  C  C446  1  0.02425000  0.18908000  0.06945000  1.0
  C  C447  1  0.05411000  0.17072000  0.09370000  1.0
  C  C448  1  0.07619000  0.13460000  0.08795000  1.0
  C  C449  1  0.98972000  0.19126000  0.01557000  1.0
  C  C450  1  0.96375000  0.22490000  0.02138000  1.0
  C  C451  1  0.96656000  0.24047000  0.05138000  1.0
  C  C452  1  0.99793000  0.22313000  0.07534000  1.0
  C  C453  1  0.00146000  0.23869000  0.10546000  1.0
  C  C454  1  0.03336000  0.22156000  0.12906000  1.0
  C  C455  1  0.05938000  0.18794000  0.12324000  1.0
  C  C456  1  0.93703000  0.27158000  0.05848000  1.0
  C  C457  1  0.97102000  0.26957000  0.11151000  1.0
  C  C458  1  0.90021000  0.30775000  0.09697000  1.0
  C  C459  1  0.94959000  0.36971000  0.09545000  1.0
  C  C460  1  0.87682000  0.36798000  0.12182000  1.0
  C  C461  1  0.84886000  0.24579000  0.09427000  1.0
  C  C462  1  0.82660000  0.30968000  0.11844000  1.0
  C  C463  1  0.85827000  0.28891000  0.10271000  1.0
  C  C464  1  0.90769000  0.34830000  0.10455000  1.0
  C  C465  1  0.83708000  0.34825000  0.12972000  1.0
  C  C466  1  0.09412000  0.95004000  0.87658000  1.0
  C  C467  1  0.10775000  0.98777000  0.86739000  1.0
  C  C468  1  0.08089000  0.00764000  0.84280000  1.0
  C  C469  1  0.04132000  0.98837000  0.82639000  1.0
  C  C470  1  0.03212000  0.94813000  0.83265000  1.0
  C  C471  1  0.05772000  0.92972000  0.85823000  1.0
  C  C472  1  0.09132000  0.05065000  0.83655000  1.0
  C  C473  1  0.99112000  0.92642000  0.81493000  1.0
  C  C474  1  0.01166000  0.02104000  0.77792000  1.0
  C  C475  1  0.97828000  0.04523000  0.76020000  1.0
  C  C476  1  0.93836000  0.05806000  0.77308000  1.0
  C  C477  1  0.93207000  0.04619000  0.80313000  1.0
  C  C478  1  0.96700000  0.02310000  0.82029000  1.0
  C  C479  1  0.98421000  0.05754000  0.73028000  1.0
  C  C480  1  0.95206000  0.08353000  0.71390000  1.0
  C  C481  1  0.91293000  0.09744000  0.72692000  1.0
  C  C482  1  0.90532000  0.08373000  0.75626000  1.0
  C  C483  1  0.86561000  0.09681000  0.76927000  1.0
  C  C484  1  0.85863000  0.08317000  0.79866000  1.0
  C  C485  1  0.89166000  0.05838000  0.81549000  1.0
  C  C486  1  0.88257000  0.12640000  0.71215000  1.0
  C  C487  1  0.83536000  0.12489000  0.75319000  1.0
  C  C488  1  0.82407000  0.17749000  0.71489000  1.0
  C  C489  1  0.87446000  0.21414000  0.75850000  1.0
  C  C490  1  0.82714000  0.24977000  0.71442000  1.0
  C  C491  1  0.77250000  0.14000000  0.67265000  1.0
  C  C492  1  0.78009000  0.21469000  0.67274000  1.0
  C  C493  1  0.79181000  0.17814000  0.68745000  1.0
  C  C494  1  0.84028000  0.21371000  0.72904000  1.0
  C  C495  1  0.79948000  0.25045000  0.68542000  1.0
  C  C496  1  0.55702000  0.74321000  0.38486000  1.0
  C  C497  1  0.58367000  0.72283000  0.36537000  1.0
  C  C498  1  0.56156000  0.69813000  0.34189000  1.0
  C  C499  1  0.51233000  0.69243000  0.33905000  1.0
  C  C500  1  0.48595000  0.71103000  0.36007000  1.0
  C  C501  1  0.50842000  0.73718000  0.38222000  1.0
  C  C502  1  0.59045000  0.67835000  0.31992000  1.0
  C  C503  1  0.43351000  0.70536000  0.35772000  1.0
  C  C504  1  0.48938000  0.62846000  0.31592000  1.0
  C  C505  1  0.46479000  0.60540000  0.29225000  1.0
  C  C506  1  0.43845000  0.62480000  0.26699000  1.0
  C  C507  1  0.43812000  0.66673000  0.26534000  1.0
  C  C508  1  0.46436000  0.68855000  0.28911000  1.0
  C  C509  1  0.46544000  0.56357000  0.29338000  1.0
  C  C510  1  0.44012000  0.54128000  0.26988000  1.0
  C  C511  1  0.41309000  0.56029000  0.24488000  1.0
  C  C512  1  0.41212000  0.60223000  0.24344000  1.0
  C  C513  1  0.38468000  0.62159000  0.21860000  1.0
  C  C514  1  0.38464000  0.66343000  0.21724000  1.0
  C  C515  1  0.41127000  0.68572000  0.24024000  1.0
  C  C516  1  0.38672000  0.53844000  0.22126000  1.0
  C  C517  1  0.35781000  0.59846000  0.19587000  1.0
  C  C518  1  0.33208000  0.53396000  0.17432000  1.0
  C  C519  1  0.39415000  0.54473000  0.13894000  1.0
  C  C520  1  0.32997000  0.49363000  0.12801000  1.0
  C  C521  1  0.26976000  0.52522000  0.20982000  1.0
  C  C522  1  0.27214000  0.48302000  0.16269000  1.0
  C  C523  1  0.29101000  0.51468000  0.18124000  1.0
  C  C524  1  0.35041000  0.52453000  0.14682000  1.0
  C  C525  1  0.29269000  0.47136000  0.13684000  1.0
  C  C526  1  0.61467000  0.77400000  0.54538000  1.0
  C  C527  1  0.62551000  0.73378000  0.55128000  1.0
  C  C528  1  0.60674000  0.71342000  0.57485000  1.0
  C  C529  1  0.57901000  0.73441000  0.59389000  1.0
  C  C530  1  0.57372000  0.77609000  0.59065000  1.0
  C  C531  1  0.59047000  0.79529000  0.56591000  1.0
  C  C532  1  0.61310000  0.66896000  0.57789000  1.0
  C  C533  1  0.54551000  0.79951000  0.61108000  1.0
  C  C534  1  0.56944000  0.69728000  0.64059000  1.0
  C  C535  1  0.54200000  0.67362000  0.65782000  1.0
  C  C536  1  0.49412000  0.66743000  0.64654000  1.0
  C  C537  1  0.47437000  0.68525000  0.61861000  1.0
  C  C538  1  0.50342000  0.70751000  0.60172000  1.0
  C  C539  1  0.56126000  0.65535000  0.68560000  1.0
  C  C540  1  0.53394000  0.63011000  0.70131000  1.0
  C  C541  1  0.48654000  0.62289000  0.68982000  1.0
  C  C542  1  0.46625000  0.64249000  0.66274000  1.0
  C  C543  1  0.41850000  0.63613000  0.65127000  1.0
  C  C544  1  0.39873000  0.65557000  0.62414000  1.0
  C  C545  1  0.42641000  0.67963000  0.60789000  1.0
  C  C546  1  0.45936000  0.59510000  0.70373000  1.0
  C  C547  1  0.39240000  0.60889000  0.66640000  1.0
  C  C548  1  0.39071000  0.55236000  0.70048000  1.0
  C  C549  1  0.41761000  0.51565000  0.65507000  1.0
  C  C550  1  0.36955000  0.48289000  0.69174000  1.0
  C  C551  1  0.36478000  0.59017000  0.74543000  1.0
  C  C552  1  0.34559000  0.51754000  0.73562000  1.0
  C  C553  1  0.36698000  0.55270000  0.72676000  1.0
  C  C554  1  0.39202000  0.51712000  0.68300000  1.0
  C  C555  1  0.34672000  0.48254000  0.71816000  1.0
  C  C556  1  0.64783000  0.96723000  0.52158000  1.0
  C  C557  1  0.66903000  0.00272000  0.51366000  1.0
  C  C558  1  0.66118000  0.03838000  0.52887000  1.0
  C  C559  1  0.63176000  0.03807000  0.55223000  1.0
  C  C560  1  0.61633000  0.00142000  0.56321000  1.0
  C  C561  1  0.62386000  0.96630000  0.54738000  1.0
  C  C562  1  0.67800000  0.07707000  0.51686000  1.0
  C  C563  1  0.58531000  0.00028000  0.58833000  1.0
  C  C564  1  0.56628000  0.08311000  0.54215000  1.0
  C  C565  1  0.53779000  0.11340000  0.55152000  1.0
  C  C566  1  0.55377000  0.13505000  0.57850000  1.0
  C  C567  1  0.59872000  0.12731000  0.59484000  1.0
  C  C568  1  0.62584000  0.09626000  0.58477000  1.0
  C  C569  1  0.49303000  0.12133000  0.53537000  1.0
  C  C570  1  0.46349000  0.14905000  0.54664000  1.0
  C  C571  1  0.47820000  0.16966000  0.57419000  1.0
  C  C572  1  0.52402000  0.16344000  0.58973000  1.0
  C  C573  1  0.53947000  0.18449000  0.61709000  1.0
  C  C574  1  0.58521000  0.17802000  0.63235000  1.0
  C  C575  1  0.61443000  0.14964000  0.62142000  1.0
  C  C576  1  0.44767000  0.19512000  0.58739000  1.0
  C  C577  1  0.50797000  0.21023000  0.62911000  1.0
  C  C578  1  0.42881000  0.23407000  0.63067000  1.0
  C  C579  1  0.43842000  0.29598000  0.59887000  1.0
  C  C580  1  0.38916000  0.29508000  0.64231000  1.0
  C  C581  1  0.41991000  0.17099000  0.66157000  1.0
  C  C582  1  0.38243000  0.23585000  0.67313000  1.0
  C  C583  1  0.40946000  0.21431000  0.65457000  1.0
  C  C584  1  0.41769000  0.27442000  0.62404000  1.0
  C  C585  1  0.37299000  0.27626000  0.66746000  1.0
  C  C586  1  0.54066000  0.93908000  0.36883000  1.0
  C  C587  1  0.55334000  0.97717000  0.35979000  1.0
  C  C588  1  0.52153000  0.00036000  0.34009000  1.0
  C  C589  1  0.47729000  0.98424000  0.32800000  1.0
  C  C590  1  0.46589000  0.94475000  0.33528000  1.0
  C  C591  1  0.49718000  0.92293000  0.35623000  1.0
  C  C592  1  0.53470000  0.04227000  0.33236000  1.0
  C  C593  1  0.41920000  0.92669000  0.32260000  1.0
  C  C594  1  0.44644000  0.01530000  0.27929000  1.0
  C  C595  1  0.41464000  0.04091000  0.26169000  1.0
  C  C596  1  0.37836000  0.05879000  0.27565000  1.0
  C  C597  1  0.37409000  0.05047000  0.30672000  1.0
  C  C598  1  0.40736000  0.02545000  0.32362000  1.0
  C  C599  1  0.41866000  0.04962000  0.23075000  1.0
  C  C600  1  0.38818000  0.07675000  0.21422000  1.0
  C  C601  1  0.35266000  0.09552000  0.22814000  1.0
  C  C602  1  0.34701000  0.08579000  0.25875000  1.0
  C  C603  1  0.31096000  0.10393000  0.27276000  1.0
  C  C604  1  0.30595000  0.09417000  0.30339000  1.0
  C  C605  1  0.33731000  0.06794000  0.32022000  1.0
  C  C606  1  0.32398000  0.12519000  0.21277000  1.0
  C  C607  1  0.28224000  0.13272000  0.25617000  1.0
  C  C608  1  0.27019000  0.18038000  0.21401000  1.0
  C  C609  1  0.32747000  0.21983000  0.25208000  1.0
  C  C610  1  0.27714000  0.25189000  0.20748000  1.0
  C  C611  1  0.21199000  0.14037000  0.17723000  1.0
  C  C612  1  0.22353000  0.21408000  0.17095000  1.0
  C  C613  1  0.23503000  0.17912000  0.18803000  1.0
  C  C614  1  0.29004000  0.21733000  0.22436000  1.0
  C  C615  1  0.24602000  0.25025000  0.17984000  1.0
  N  N616  1  0.11683000  0.94023000  0.96340000  1.0
  N  N617  1  0.10467000  0.86746000  0.92835000  1.0
  N  N618  1  0.08240000  0.81953000  0.97867000  1.0
  N  N619  1  0.09099000  0.89272000  0.01496000  1.0
  N  N620  1  0.61291000  0.91619000  0.44562000  1.0
  N  N621  1  0.58497000  0.84715000  0.40837000  1.0
  N  N622  1  0.60815000  0.79193000  0.45946000  1.0
  N  N623  1  0.63171000  0.86126000  0.49756000  1.0
  N  N624  1  0.99083000  0.69966000  0.82759000  1.0
  N  N625  1  0.87056000  0.58089000  0.71232000  1.0
  N  N626  1  0.96558000  0.73636000  0.11139000  1.0
  N  N627  1  0.82656000  0.59634000  0.17461000  1.0
  N  N628  1  0.06822000  0.11752000  0.05927000  1.0
  N  N629  1  0.93804000  0.28384000  0.08843000  1.0
  N  N630  1  0.00602000  0.01133000  0.80762000  1.0
  N  N631  1  0.84597000  0.14081000  0.72612000  1.0
  N  N632  1  0.48861000  0.66924000  0.31399000  1.0
  N  N633  1  0.35940000  0.55769000  0.19760000  1.0
  N  N634  1  0.55016000  0.71280000  0.61272000  1.0
  N  N635  1  0.41383000  0.58749000  0.69111000  1.0
  N  N636  1  0.60846000  0.07407000  0.55949000  1.0
  N  N637  1  0.46249000  0.21367000  0.61487000  1.0
  N  N638  1  0.44288000  0.00874000  0.30982000  1.0
  N  N639  1  0.29081000  0.14416000  0.22736000  1.0
  O  O640  1  0.77271000  0.28803000  0.63897000  1.0
  O  O641  1  0.82670000  0.31627000  0.67699000  1.0
  O  O642  1  0.90327000  0.38579000  0.60576000  1.0
  O  O643  1  0.91090000  0.36223000  0.65556000  1.0
  O  O644  1  0.70418000  0.34626000  0.62162000  1.0
  O  O645  1  0.66981000  0.37406000  0.57552000  1.0
  O  O646  1  0.83223000  0.43817000  0.61544000  1.0
  O  O647  1  0.82030000  0.40730000  0.66063000  1.0
  O  O648  1  0.82715000  0.33994000  0.61267000  1.0
  O  O649  1  0.77100000  0.38220000  0.59674000  1.0
  O  O650  1  0.83246000  0.38864000  0.54939000  1.0
  O  O651  1  0.75485000  0.38114000  0.52651000  1.0
  O  O652  1  0.83349000  0.38452000  0.17701000  1.0
  O  O653  1  0.76854000  0.35021000  0.15570000  1.0
  O  O654  1  0.68833000  0.38310000  0.23937000  1.0
  O  O655  1  0.67843000  0.36067000  0.18909000  1.0
  O  O656  1  0.88575000  0.33864000  0.23050000  1.0
  O  O657  1  0.92135000  0.37776000  0.27057000  1.0
  O  O658  1  0.74799000  0.44130000  0.23968000  1.0
  O  O659  1  0.74921000  0.42749000  0.18840000  1.0
  O  O660  1  0.77237000  0.34676000  0.22340000  1.0
  O  O661  1  0.82063000  0.40652000  0.24845000  1.0
  O  O662  1  0.76107000  0.37290000  0.29436000  1.0
  O  O663  1  0.83831000  0.38093000  0.31776000  1.0
  O  O664  1  0.21564000  0.28328000  0.13171000  1.0
  O  O665  1  0.27364000  0.31375000  0.16530000  1.0
  O  O666  1  0.34870000  0.36502000  0.08538000  1.0
  O  O667  1  0.35690000  0.34852000  0.13680000  1.0
  O  O668  1  0.15369000  0.34753000  0.11983000  1.0
  O  O669  1  0.11987000  0.38887000  0.08047000  1.0
  O  O670  1  0.28945000  0.42476000  0.09453000  1.0
  O  O671  1  0.27440000  0.40232000  0.14178000  1.0
  O  O672  1  0.26866000  0.32657000  0.09769000  1.0
  O  O673  1  0.22100000  0.37482000  0.08924000  1.0
  O  O674  1  0.26622000  0.37161000  0.03131000  1.0
  O  O675  1  0.18562000  0.38438000  0.02228000  1.0
  O  O676  1  0.37852000  0.29696000  0.71957000  1.0
  O  O677  1  0.32357000  0.32793000  0.68366000  1.0
  O  O678  1  0.24430000  0.38654000  0.76076000  1.0
  O  O679  1  0.23602000  0.36550000  0.71021000  1.0
  O  O680  1  0.44367000  0.35072000  0.73856000  1.0
  O  O681  1  0.47761000  0.38871000  0.77972000  1.0
  O  O682  1  0.31749000  0.43979000  0.75633000  1.0
  O  O683  1  0.32594000  0.41396000  0.70876000  1.0
  O  O684  1  0.32098000  0.33980000  0.75148000  1.0
  O  O685  1  0.37497000  0.38473000  0.76391000  1.0
  O  O686  1  0.32188000  0.38198000  0.81841000  1.0
  O  O687  1  0.40326000  0.38695000  0.83145000  1.0
  O  O688  1  0.06171000  0.68473000  0.80978000  1.0
  O  O689  1  0.91993000  0.71518000  0.84525000  1.0
  O  O690  1  0.94207000  0.56111000  0.69744000  1.0
  O  O691  1  0.79891000  0.60175000  0.72618000  1.0
  O  O692  1  0.93815000  0.78631000  0.14137000  1.0
  O  O693  1  0.99340000  0.68635000  0.08157000  1.0
  O  O694  1  0.79248000  0.64679000  0.20067000  1.0
  O  O695  1  0.86093000  0.54568000  0.14878000  1.0
  O  O696  1  0.10262000  0.11605000  0.11061000  1.0
  O  O697  1  0.03605000  0.11964000  0.00742000  1.0
  O  O698  1  0.97196000  0.28286000  0.14000000  1.0
  O  O699  1  0.90619000  0.28718000  0.03665000  1.0
  O  O700  1  0.96260000  0.01326000  0.84898000  1.0
  O  O701  1  0.04883000  0.00817000  0.76614000  1.0
  O  O702  1  0.79862000  0.13818000  0.76527000  1.0
  O  O703  1  0.89149000  0.14195000  0.68584000  1.0
  O  O704  1  0.46515000  0.72783000  0.28767000  1.0
  O  O705  1  0.51259000  0.61084000  0.34034000  1.0
  O  O706  1  0.33082000  0.61600000  0.17296000  1.0
  O  O707  1  0.38815000  0.49912000  0.22194000  1.0
  O  O708  1  0.48586000  0.72263000  0.57474000  1.0
  O  O709  1  0.61409000  0.70397000  0.65100000  1.0
  O  O710  1  0.34805000  0.60176000  0.65548000  1.0
  O  O711  1  0.47875000  0.57434000  0.72778000  1.0
  O  O712  1  0.66698000  0.08723000  0.60051000  1.0
  O  O713  1  0.55116000  0.06174000  0.51743000  1.0
  O  O714  1  0.52147000  0.22964000  0.65505000  1.0
  O  O715  1  0.40385000  0.19955000  0.57412000  1.0
  O  O716  1  0.40495000  0.01861000  0.35308000  1.0
  O  O717  1  0.48026000  0.99794000  0.26651000  1.0
  O  O718  1  0.24885000  0.15051000  0.26907000  1.0
  O  O719  1  0.33117000  0.13663000  0.18492000  1.0
