# generated using pymatgen
data_Cu2H14C17Br2N2O
_symmetry_space_group_name_H-M   'P 1'
_cell_length_a   14.90785000
_cell_length_b   36.28540000
_cell_length_c   36.28540000
_cell_angle_alpha   99.05200000
_cell_angle_beta   90.00000000
_cell_angle_gamma   90.00000000
_symmetry_Int_Tables_number   1
_chemical_formula_structural   Cu2H14C17Br2N2O
_chemical_formula_sum   'Cu32 H224 C272 Br32 N32 O16'
_cell_volume   19383.67681836
_cell_formula_units_Z   16
loop_
 _symmetry_equiv_pos_site_id
 _symmetry_equiv_pos_as_xyz
  1  'x, y, z'
loop_
 _atom_site_type_symbol
 _atom_site_label
 _atom_site_symmetry_multiplicity
 _atom_site_fract_x
 _atom_site_fract_y
 _atom_site_fract_z
 _atom_site_occupancy
  Br  Br0  1  0.71582000  0.56981000  0.24211000  1.0
  Br  Br1  1  0.45696000  0.59265000  0.31138000  1.0
  Br  Br2  1  0.37380000  0.49146000  0.27300000  1.0
  Br  Br3  1  0.63354000  0.47233000  0.28914000  1.0
  Br  Br4  1  0.25690000  0.77920000  0.42393000  1.0
  Br  Br5  1  0.50116000  0.70423000  0.41391000  1.0
  Br  Br6  1  0.55714000  0.74932000  0.52012000  1.0
  Br  Br7  1  0.29018000  0.72122000  0.51979000  1.0
  Br  Br8  1  0.19154000  0.97451000  0.28329000  1.0
  Br  Br9  1  0.94656000  0.93574000  0.20098000  1.0
  Br  Br10  1  0.83274000  0.02511000  0.25700000  1.0
  Br  Br11  1  0.09004000  0.05846000  0.22715000  1.0
  Br  Br12  1  0.74002000  0.75372000  0.09944000  1.0
  Br  Br13  1  0.99600000  0.82334000  0.11749000  1.0
  Br  Br14  1  0.06424000  0.78982000  0.01260000  1.0
  Br  Br15  1  0.80060000  0.80785000  0.00334000  1.0
  Br  Br16  1  0.25172000  0.10691000  0.73757000  1.0
  Br  Br17  1  0.00570000  0.11411000  0.81825000  1.0
  Br  Br18  1  0.96770000  0.00796000  0.78309000  1.0
  Br  Br19  1  0.23570000  0.01270000  0.79807000  1.0
  Br  Br20  1  0.70518000  0.23293000  0.90249000  1.0
  Br  Br21  1  0.00352000  0.20889000  0.91757000  1.0
  Br  Br22  1  0.96650000  0.27446000  0.01848000  1.0
  Br  Br23  1  0.77206000  0.19609000  0.00920000  1.0
  Br  Br24  1  0.68246000  0.41804000  0.80513000  1.0
  Br  Br25  1  0.44908000  0.42261000  0.71876000  1.0
  Br  Br26  1  0.44140000  0.52953000  0.75666000  1.0
  Br  Br27  1  0.70832000  0.50676000  0.73944000  1.0
  Br  Br28  1  0.18164000  0.25196000  0.62874000  1.0
  Br  Br29  1  0.45684000  0.31748000  0.63269000  1.0
  Br  Br30  1  0.49830000  0.26141000  0.53422000  1.0
  Br  Br31  1  0.23246000  0.30116000  0.53312000  1.0
  C  C32  1  0.60224000  0.45592000  0.18343000  1.0
  C  C33  1  0.46866000  0.47999000  0.36733000  1.0
  C  C34  1  0.44550000  0.47514000  0.40403000  1.0
  C  C35  1  0.43686000  0.50729000  0.43102000  1.0
  C  C36  1  0.45348000  0.54235000  0.42177000  1.0
  C  C37  1  0.47834000  0.54556000  0.38555000  1.0
  C  C38  1  0.74264000  0.60802000  0.34486000  1.0
  C  C39  1  0.80484000  0.61089000  0.37444000  1.0
  C  C40  1  0.80558000  0.58274000  0.39687000  1.0
  C  C41  1  0.74754000  0.55252000  0.38921000  1.0
  C  C42  1  0.68902000  0.55046000  0.35908000  1.0
  C  C43  1  0.37064000  0.59729000  0.21338000  1.0
  C  C44  1  0.32774000  0.60668000  0.18125000  1.0
  C  C45  1  0.31902000  0.57818000  0.15018000  1.0
  C  C46  1  0.34562000  0.54186000  0.15228000  1.0
  C  C47  1  0.38422000  0.53399000  0.18492000  1.0
  C  C48  1  0.58506000  0.51756000  0.17017000  1.0
  C  C49  1  0.57484000  0.50427000  0.13236000  1.0
  C  C50  1  0.57904000  0.46607000  0.11991000  1.0
  C  C51  1  0.59476000  0.44108000  0.14518000  1.0
  C  C52  1  0.31518000  0.82725000  0.54834000  1.0
  C  C53  1  0.44434000  0.64614000  0.52374000  1.0
  C  C54  1  0.47490000  0.61129000  0.53171000  1.0
  C  C55  1  0.54278000  0.59307000  0.50880000  1.0
  C  C56  1  0.58166000  0.61009000  0.48106000  1.0
  C  C57  1  0.55034000  0.64464000  0.47494000  1.0
  C  C58  1  0.18016000  0.68638000  0.41138000  1.0
  C  C59  1  0.11202000  0.65999000  0.41414000  1.0
  C  C60  1  0.13596000  0.62786000  0.42917000  1.0
  C  C61  1  0.22416000  0.62266000  0.44023000  1.0
  C  C62  1  0.28796000  0.65019000  0.43766000  1.0
  C  C63  1  0.57524000  0.80612000  0.41072000  1.0
  C  C64  1  0.61540000  0.83907000  0.40225000  1.0
  C  C65  1  0.62128000  0.86989000  0.43109000  1.0
  C  C66  1  0.59634000  0.86655000  0.46729000  1.0
  C  C67  1  0.56212000  0.83287000  0.47451000  1.0
  C  C68  1  0.36432000  0.84625000  0.49206000  1.0
  C  C69  1  0.37334000  0.88293000  0.50961000  1.0
  C  C70  1  0.35184000  0.89191000  0.54720000  1.0
  C  C71  1  0.31862000  0.86441000  0.56698000  1.0
  C  C72  1  0.10070000  0.07539000  0.33563000  1.0
  C  C73  1  0.98714000  0.03069000  0.14221000  1.0
  C  C74  1  0.95726000  0.04098000  0.10845000  1.0
  C  C75  1  0.86554000  0.03848000  0.10019000  1.0
  C  C76  1  0.80642000  0.02515000  0.12478000  1.0
  C  C77  1  0.83916000  0.01509000  0.15783000  1.0
  C  C78  1  0.24966000  0.93151000  0.19363000  1.0
  C  C79  1  0.30862000  0.91653000  0.16497000  1.0
  C  C80  1  0.28460000  0.91998000  0.12817000  1.0
  C  C81  1  0.20458000  0.93775000  0.12109000  1.0
  C  C82  1  0.14804000  0.95153000  0.15075000  1.0
  C  C83  1  0.85192000  0.91757000  0.29952000  1.0
  C  C84  1  0.84574000  0.89341000  0.32627000  1.0
  C  C85  1  0.91414000  0.89474000  0.35311000  1.0
  C  C86  1  0.98418000  0.92009000  0.35367000  1.0
  C  C87  1  0.98648000  0.94380000  0.32712000  1.0
  C  C88  1  0.96954000  0.03943000  0.34026000  1.0
  C  C89  1  0.95122000  0.05929000  0.37553000  1.0
  C  C90  1  0.00912000  0.08774000  0.39098000  1.0
  C  C91  1  0.08486000  0.09638000  0.37102000  1.0
  C  C92  1  0.81356000  0.70191000  0.98103000  1.0
  C  C93  1  0.95470000  0.88457000  0.00743000  1.0
  C  C94  1  0.95796000  0.92237000  0.00291000  1.0
  C  C95  1  0.96870000  0.94931000  0.03477000  1.0
  C  C96  1  0.97692000  0.93854000  0.06969000  1.0
  C  C97  1  0.97354000  0.90090000  0.07285000  1.0
  C  C98  1  0.69478000  0.85287000  0.13344000  1.0
  C  C99  1  0.63296000  0.88275000  0.13749000  1.0
  C  C100  1  0.64548000  0.91091000  0.11548000  1.0
  C  C101  1  0.71118000  0.90709000  0.08805000  1.0
  C  C102  1  0.76588000  0.87571000  0.08347000  1.0
  C  C103  1  0.09460000  0.72233000  0.10997000  1.0
  C  C104  1  0.14950000  0.69088000  0.11222000  1.0
  C  C105  1  0.15954000  0.66427000  0.07976000  1.0
  C  C106  1  0.11832000  0.66931000  0.04663000  1.0
  C  C107  1  0.06776000  0.70117000  0.04559000  1.0
  C  C108  1  0.86622000  0.68529000  0.03787000  1.0
  C  C109  1  0.87222000  0.64798000  0.02180000  1.0
  C  C110  1  0.84708000  0.63749000  0.98472000  1.0
  C  C111  1  0.81464000  0.66425000  0.96390000  1.0
  C  C112  1  0.18638000  0.98136000  0.69686000  1.0
  C  C113  1  0.04588000  0.01283000  0.87518000  1.0
  C  C114  1  0.02584000  0.01028000  0.91253000  1.0
  C  C115  1  0.04854000  0.04062000  0.93993000  1.0
  C  C116  1  0.08964000  0.07212000  0.92985000  1.0
  C  C117  1  0.10500000  0.07376000  0.89228000  1.0
  C  C118  1  0.30908000  0.10638000  0.84459000  1.0
  C  C119  1  0.36694000  0.12124000  0.87391000  1.0
  C  C120  1  0.35034000  0.15737000  0.89266000  1.0
  C  C121  1  0.27692000  0.17746000  0.88265000  1.0
  C  C122  1  0.22076000  0.16137000  0.85379000  1.0
  C  C123  1  0.91272000  0.11111000  0.71764000  1.0
  C  C124  1  0.85404000  0.11552000  0.68801000  1.0
  C  C125  1  0.82834000  0.08345000  0.66334000  1.0
  C  C126  1  0.85782000  0.04842000  0.66891000  1.0
  C  C127  1  0.91350000  0.04540000  0.69900000  1.0
  C  C128  1  0.11568000  0.03382000  0.67779000  1.0
  C  C129  1  0.09340000  0.01299000  0.64350000  1.0
  C  C130  1  0.11916000  0.97570000  0.63576000  1.0
  C  C131  1  0.16904000  0.95950000  0.66199000  1.0
  C  C132  1  0.70352000  0.30286000  0.02669000  1.0
  C  C133  1  0.00410000  0.14839000  0.01418000  1.0
  C  C134  1  0.07940000  0.13043000  0.02741000  1.0
  C  C135  1  0.16302000  0.14841000  0.02831000  1.0
  C  C136  1  0.17238000  0.18172000  0.01474000  1.0
  C  C137  1  0.09774000  0.19776000  0.00102000  1.0
  C  C138  1  0.71884000  0.13884000  0.91477000  1.0
  C  C139  1  0.69254000  0.10112000  0.90605000  1.0
  C  C140  1  0.76068000  0.07426000  0.89785000  1.0
  C  C141  1  0.85038000  0.08489000  0.89905000  1.0
  C  C142  1  0.87280000  0.12247000  0.90760000  1.0
  C  C143  1  0.01190000  0.30909000  0.90252000  1.0
  C  C144  1  0.03674000  0.34355000  0.89189000  1.0
  C  C145  1  0.99774000  0.37624000  0.91134000  1.0
  C  C146  1  0.94044000  0.37455000  0.94124000  1.0
  C  C147  1  0.92092000  0.34015000  0.95149000  1.0
  C  C148  1  0.71102000  0.31721000  0.96514000  1.0
  C  C149  1  0.67556000  0.35246000  0.97685000  1.0
  C  C150  1  0.65254000  0.36290000  0.01409000  1.0
  C  C151  1  0.66669333  0.33842000  0.04002000  1.0
  C  C152  1  0.65846000  0.54688000  0.83946000  1.0
  C  C153  1  0.50598000  0.51685000  0.66056000  1.0
  C  C154  1  0.50498000  0.52039000  0.62249000  1.0
  C  C155  1  0.54902000  0.49308000  0.59721000  1.0
  C  C156  1  0.58844000  0.46252000  0.60969000  1.0
  C  C157  1  0.58542000  0.45975000  0.64750000  1.0
  C  C158  1  0.73816000  0.40425000  0.69208000  1.0
  C  C159  1  0.78384000  0.38166000  0.66294000  1.0
  C  C160  1  0.75488000  0.34494000  0.65180000  1.0
  C  C161  1  0.68070000  0.33165000  0.66891000  1.0
  C  C162  1  0.63640000  0.35510000  0.69720000  1.0
  C  C163  1  0.33776000  0.42412000  0.81100000  1.0
  C  C164  1  0.26340000  0.42017000  0.83445000  1.0
  C  C165  1  0.23382000  0.45246000  0.85815000  1.0
  C  C166  1  0.27716000  0.48646000  0.85864000  1.0
  C  C167  1  0.34852000  0.48884000  0.83459000  1.0
  C  C168  1  0.56154000  0.50201000  0.85932000  1.0
  C  C169  1  0.54426000  0.52563000  0.89265000  1.0
  C  C170  1  0.58594000  0.56040000  0.89952000  1.0
  C  C171  1  0.64510000  0.57139000  0.87311000  1.0
  C  C172  1  0.25062000  0.20129000  0.50261000  1.0
  C  C173  1  0.41344000  0.35860000  0.51501000  1.0
  C  C174  1  0.41244000  0.39389000  0.50318000  1.0
  C  C175  1  0.40712000  0.42566000  0.53091000  1.0
  C  C176  1  0.40382000  0.42195000  0.56844000  1.0
  C  C177  1  0.40500000  0.38660000  0.57850000  1.0
  C  C178  1  0.14804000  0.35459000  0.62512000  1.0
  C  C179  1  0.10780000  0.39006000  0.63382000  1.0
  C  C180  1  0.15704000  0.41932000  0.65396000  1.0
  C  C181  1  0.24236000  0.41288000  0.66650000  1.0
  C  C182  1  0.27860000  0.37722000  0.65845000  1.0
  C  C183  1  0.56506000  0.21802000  0.63210000  1.0
  C  C184  1  0.59588000  0.19468000  0.65720000  1.0
  C  C185  1  0.53160000  0.17599000  0.67573000  1.0
  C  C186  1  0.44058000  0.18127000  0.67000000  1.0
  C  C187  1  0.41364000  0.20520000  0.64571000  1.0
  C  C188  1  0.30010000  0.17527000  0.55499000  1.0
  C  C189  1  0.30472000  0.13989000  0.53359000  1.0
  C  C190  1  0.28110000  0.13529000  0.49600000  1.0
  C  C191  1  0.25336000  0.16611000  0.47992000  1.0
  C  C192  1  0.95794000  0.63667000  0.39175000  1.0
  C  C193  1  0.01716000  0.66666667  0.40266000  1.0
  C  C194  1  0.78016000  0.75429000  0.39733000  1.0
  C  C195  1  0.98434000  0.70317000  0.40323000  1.0
  C  C196  1  0.89612000  0.71006000  0.39296000  1.0
  C  C197  1  0.83830000  0.67938000  0.38205000  1.0
  C  C198  1  0.86818000  0.64279000  0.38235000  1.0
  C  C199  1  0.73000000  0.86425000  0.36212000  1.0
  C  C200  1  0.65540000  0.84116000  0.36484000  1.0
  C  C201  1  0.59988000  0.76641000  0.26691000  1.0
  C  C202  1  0.62114000  0.82023000  0.33196000  1.0
  C  C203  1  0.66124000  0.82223000  0.29689000  1.0
  C  C204  1  0.73208000  0.84727000  0.29506000  1.0
  C  C205  1  0.76786000  0.86805000  0.32757000  1.0
  C  C206  1  0.47098000  0.89851000  0.15214000  1.0
  C  C207  1  0.55296000  0.88330000  0.16224000  1.0
  C  C208  1  0.48534000  0.88085000  0.28093000  1.0
  C  C209  1  0.55702000  0.86807000  0.19549000  1.0
  C  C210  1  0.48090000  0.86739000  0.21779000  1.0
  C  C211  1  0.39906000  0.88067000  0.20628000  1.0
  C  C212  1  0.39364000  0.89790000  0.17422000  1.0
  C  C213  1  0.22572000  0.65092000  0.15362000  1.0
  C  C214  1  0.20346000  0.68674000  0.14612000  1.0
  C  C215  1  0.40736000  0.76027000  0.19656000  1.0
  C  C216  1  0.24242000  0.71783000  0.16823000  1.0
  C  C217  1  0.30670000  0.71308000  0.19541000  1.0
  C  C218  1  0.33258000  0.67710000  0.20056000  1.0
  C  C219  1  0.29400000  0.64536000  0.17914000  1.0
  C  C220  1  0.52838000  0.11143000  0.89129000  1.0
  C  C221  1  0.43938000  0.09827000  0.88681000  1.0
  C  C222  1  0.48956000  0.00088000  0.95360000  1.0
  C  C223  1  0.41798000  0.06321000  0.89595000  1.0
  C  C224  1  0.48238000  0.04183000  0.91082000  1.0
  C  C225  1  0.57150000  0.05486000  0.91449000  1.0
  C  C226  1  0.59596000  0.08942000  0.90438000  1.0
  C  C227  1  0.16070000  0.37710000  0.86365000  1.0
  C  C228  1  0.10208000  0.34631000  0.86116000  1.0
  C  C229  1  0.10934000  0.31251000  0.73755000  1.0
  C  C230  1  0.10230000  0.32006000  0.82837000  1.0
  C  C231  1  0.15576000  0.32554000  0.79795000  1.0
  C  C232  1  0.21064000  0.35736000  0.80028000  1.0
  C  C233  1  0.21282000  0.38403000  0.83295000  1.0
  C  C234  1  0.94412000  0.38218000  0.64316000  1.0
  C  C235  1  0.85710000  0.39671000  0.64246000  1.0
  C  C236  1  0.80922000  0.47353000  0.56914000  1.0
  C  C237  1  0.83954000  0.42565000  0.62202000  1.0
  C  C238  1  0.90850000  0.43988000  0.60138000  1.0
  C  C239  1  0.99536000  0.42591000  0.60368000  1.0
  C  C240  1  0.01398000  0.39749000  0.62466000  1.0
  C  C241  1  0.72836000  0.15619000  0.67140000  1.0
  C  C242  1  0.81800000  0.15267000  0.68279000  1.0
  C  C243  1  0.92360000  0.25985000  0.65569000  1.0
  C  C244  1  0.87248000  0.18460000  0.68860000  1.0
  C  C245  1  0.83916000  0.21910000  0.68218000  1.0
  C  C246  1  0.74952000  0.22219000  0.67121000  1.0
  C  C247  1  0.69306000  0.19087000  0.66581000  1.0
  C  C248  1  0.44110000  0.43046000  0.45061000  1.0
  C  C249  1  0.42506000  0.43765000  0.41410000  1.0
  C  C250  1  0.22132000  0.35768000  0.37268000  1.0
  C  C251  1  0.38308000  0.40993000  0.38851000  1.0
  C  C252  1  0.35394000  0.37664000  0.39960000  1.0
  C  C253  1  0.36648000  0.37076000  0.43647000  1.0
  C  C254  1  0.40878000  0.39787000  0.46273000  1.0
  C  C255  1  0.24018000  0.90976000  0.61558000  1.0
  C  C256  1  0.20814000  0.92145000  0.65191000  1.0
  C  C257  1  0.23004000  0.80406000  0.68444000  1.0
  C  C258  1  0.21722000  0.89732000  0.67837000  1.0
  C  C259  1  0.25644000  0.86204000  0.66871000  1.0
  C  C260  1  0.29144000  0.85146000  0.63246000  1.0
  C  C261  1  0.28310000  0.87515000  0.60557000  1.0
  C  C262  1  0.01214000  0.08385000  0.06480000  1.0
  C  C263  1  0.07612000  0.09293000  0.03918000  1.0
  C  C264  1  0.25142000  0.00541000  0.99620000  1.0
  C  C265  1  0.14588000  0.06745000  0.02775000  1.0
  C  C266  1  0.15472000  0.03405000  0.04265000  1.0
  C  C267  1  0.09486000  0.02724000  0.07025000  1.0
  C  C268  1  0.02212000  0.05109000  0.08080000  1.0
  C  C269  1  0.73014000  0.61894000  0.91716000  1.0
  C  C270  1  0.77832000  0.65251000  0.92563000  1.0
  C  C271  1  0.80808000  0.66693000  0.80206000  1.0
  C  C272  1  0.79080000  0.67457000  0.89752000  1.0
  C  C273  1  0.75824000  0.66300000  0.86137000  1.0
  C  C274  1  0.70886000  0.62954000  0.85358000  1.0
  C  C275  1  0.69512000  0.60719000  0.88132000  1.0
  C  C276  1  0.17196000  0.13158000  0.42449000  1.0
  C  C277  1  0.14604000  0.12713000  0.38679000  1.0
  C  C278  1  0.35230000  0.20453000  0.35032000  1.0
  C  C279  1  0.17718000  0.15270000  0.36444000  1.0
  C  C280  1  0.23324000  0.18223000  0.37929000  1.0
  C  C281  1  0.25630000  0.18707000  0.41728000  1.0
  C  C282  1  0.22696000  0.16153000  0.44001000  1.0
  C  C283  1  0.99378000  0.96398000  0.95582000  1.0
  C  C284  1  0.97594000  0.97761000  0.92236000  1.0
  C  C285  1  0.70824000  0.93447000  0.89703000  1.0
  C  C286  1  0.90706000  0.96089000  0.89903000  1.0
  C  C287  1  0.85670000  0.93144000  0.90901000  1.0
  C  C288  1  0.87626000  0.91772000  0.94204000  1.0
  C  C289  1  0.94390000  0.93422000  0.96602000  1.0
  C  C290  1  0.64150000  0.38773000  0.09612000  1.0
  C  C291  1  0.63866000  0.34986000  0.07973000  1.0
  C  C292  1  0.43742000  0.30678000  0.14834000  1.0
  C  C293  1  0.60194000  0.32394000  0.10046000  1.0
  C  C294  1  0.56578000  0.33579000  0.13602000  1.0
  C  C295  1  0.56644000  0.37377000  0.15134000  1.0
  C  C296  1  0.60252000  0.40026000  0.13119000  1.0
  C  C297  1  0.48950000  0.56872000  0.58038000  1.0
  C  C298  1  0.43774000  0.59407000  0.56345000  1.0
  C  C299  1  0.16890000  0.56798000  0.59930000  1.0
  C  C300  1  0.34994000  0.60201000  0.57666000  1.0
  C  C301  1  0.31478000  0.58498000  0.60559000  1.0
  C  C302  1  0.36698000  0.55971000  0.62173000  1.0
  C  C303  1  0.45396000  0.55067000  0.60867000  1.0
  Cu  Cu304  1  0.60770000  0.57391000  0.29290000  1.0
  Cu  Cu305  1  0.45798000  0.54545000  0.25790000  1.0
  Cu  Cu306  1  0.61494000  0.51659000  0.24762000  1.0
  Cu  Cu307  1  0.50702000  0.52039000  0.30550000  1.0
  Cu  Cu308  1  0.34964000  0.72435000  0.42660000  1.0
  Cu  Cu309  1  0.49138000  0.75934000  0.46072000  1.0
  Cu  Cu310  1  0.32930000  0.76823000  0.48309000  1.0
  Cu  Cu311  1  0.43966000  0.71175000  0.48435000  1.0
  Cu  Cu312  1  0.08826000  0.95961000  0.22893000  1.0
  Cu  Cu313  1  0.93680000  0.97386000  0.26138000  1.0
  Cu  Cu314  1  0.07438000  0.01823000  0.27222000  1.0
  Cu  Cu315  1  0.96800000  0.00825000  0.21629000  1.0
  Cu  Cu316  1  0.84256000  0.80603000  0.10136000  1.0
  Cu  Cu317  1  0.98922000  0.77182000  0.06769000  1.0
  Cu  Cu318  1  0.82824000  0.76311000  0.04360000  1.0
  Cu  Cu319  1  0.93748000  0.82106000  0.04683000  1.0
  Cu  Cu320  1  0.15632000  0.10802000  0.79276000  1.0
  Cu  Cu321  1  0.01846000  0.06683000  0.76458000  1.0
  Cu  Cu322  1  0.18436000  0.04873000  0.75232000  1.0
  Cu  Cu323  1  0.08966000  0.04859000  0.81209000  1.0
  Cu  Cu324  1  0.84182000  0.20224000  0.91812000  1.0
  Cu  Cu325  1  0.92618000  0.26195000  0.95236000  1.0
  Cu  Cu326  1  0.76678000  0.24259000  0.96749000  1.0
  Cu  Cu327  1  0.92086000  0.21356000  0.98259000  1.0
  Cu  Cu328  1  0.59302000  0.41982000  0.74856000  1.0
  Cu  Cu329  1  0.46862000  0.46752000  0.77385000  1.0
  Cu  Cu330  1  0.63772000  0.47805000  0.78699000  1.0
  Cu  Cu331  1  0.54938000  0.48256000  0.72631000  1.0
  Cu  Cu332  1  0.29772000  0.30039000  0.62680000  1.0
  Cu  Cu333  1  0.42888000  0.25863000  0.59529000  1.0
  Cu  Cu334  1  0.26560000  0.25506000  0.57084000  1.0
  Cu  Cu335  1  0.38400000  0.30579000  0.56616000  1.0
  H  H336  1  0.74072000  0.62893000  0.32666000  1.0
  H  H337  1  0.64686000  0.52649000  0.35257000  1.0
  H  H338  1  0.74852000  0.53059000  0.40623000  1.0
  H  H339  1  0.85080000  0.58414000  0.42038000  1.0
  H  H340  1  0.37950000  0.61779000  0.23808000  1.0
  H  H341  1  0.29204000  0.58358000  0.12392000  1.0
  H  H342  1  0.33676000  0.51994000  0.12867000  1.0
  H  H343  1  0.40376000  0.50570000  0.18695000  1.0
  H  H344  1  0.58228000  0.54723000  0.17995000  1.0
  H  H345  1  0.56358000  0.52348000  0.11287000  1.0
  H  H346  1  0.56954000  0.45619000  0.09045000  1.0
  H  H347  1  0.61516000  0.43787000  0.20385000  1.0
  H  H348  1  0.47476000  0.45623000  0.34543000  1.0
  H  H349  1  0.41540000  0.50564000  0.45919000  1.0
  H  H350  1  0.44558000  0.56702000  0.44240000  1.0
  H  H351  1  0.49342000  0.57284000  0.37918000  1.0
  H  H352  1  0.16638000  0.71089000  0.39907000  1.0
  H  H353  1  0.35562000  0.64663000  0.44678000  1.0
  H  H354  1  0.24254000  0.59784000  0.45151000  1.0
  H  H355  1  0.08698000  0.60689000  0.43310000  1.0
  H  H356  1  0.56850000  0.78165000  0.38971000  1.0
  H  H357  1  0.64642000  0.89659000  0.42603000  1.0
  H  H358  1  0.60352000  0.88989000  0.48963000  1.0
  H  H359  1  0.54370000  0.82992000  0.50269000  1.0
  H  H360  1  0.37880000  0.83928000  0.46264000  1.0
  H  H361  1  0.39622000  0.90426000  0.49409000  1.0
  H  H362  1  0.35976000  0.92057000  0.56047000  1.0
  H  H363  1  0.28964000  0.80517000  0.56222000  1.0
  H  H364  1  0.39420000  0.66164000  0.54108000  1.0
  H  H365  1  0.56636000  0.56558000  0.51194000  1.0
  H  H366  1  0.63570000  0.59651000  0.46421000  1.0
  H  H367  1  0.58394000  0.65801000  0.45444000  1.0
  H  H368  1  0.26484000  0.92941000  0.22214000  1.0
  H  H369  1  0.08446000  0.96381000  0.14545000  1.0
  H  H370  1  0.18554000  0.94000000  0.09277000  1.0
  H  H371  1  0.32598000  0.90839000  0.10473000  1.0
  H  H372  1  0.80118000  0.91726000  0.27816000  1.0
  H  H373  1  0.91354000  0.87619000  0.37373000  1.0
  H  H374  1  0.03648000  0.92133000  0.37448000  1.0
  H  H375  1  0.04032000  0.96361000  0.32761000  1.0
  H  H376  1  0.92498000  0.01739000  0.32828000  1.0
  H  H377  1  0.89254000  0.05268000  0.39074000  1.0
  H  H378  1  0.99390000  0.10331000  0.41820000  1.0
  H  H379  1  0.15928000  0.08067000  0.31966000  1.0
  H  H380  1  0.05766000  0.03229000  0.14909000  1.0
  H  H381  1  0.84020000  0.04566000  0.07428000  1.0
  H  H382  1  0.73570000  0.02251000  0.11827000  1.0
  H  H383  1  0.79326000  0.00480000  0.17685000  1.0
  H  H384  1  0.68830000  0.83061000  0.14983000  1.0
  H  H385  1  0.81008000  0.87124000  0.06029000  1.0
  H  H386  1  0.71802000  0.92772000  0.06971000  1.0
  H  H387  1  0.60310000  0.93538000  0.11855000  1.0
  H  H388  1  0.08542000  0.74379000  0.13393000  1.0
  H  H389  1  0.20256000  0.64020000  0.07926000  1.0
  H  H390  1  0.12774000  0.64920000  0.02158000  1.0
  H  H391  1  0.03900000  0.70603000  0.01945000  1.0
  H  H392  1  0.88302000  0.69351000  0.06697000  1.0
  H  H393  1  0.89518000  0.62732000  0.03812000  1.0
  H  H394  1  0.85192000  0.60835000  0.97259000  1.0
  H  H395  1  0.78762000  0.72336000  0.96637000  1.0
  H  H396  1  0.94478000  0.86306000  0.98356000  1.0
  H  H397  1  0.96740000  0.97871000  0.03278000  1.0
  H  H398  1  0.98262000  0.95925000  0.09437000  1.0
  H  H399  1  0.97550000  0.89332000  0.10029000  1.0
  H  H400  1  0.32208000  0.07916000  0.82898000  1.0
  H  H401  1  0.16402000  0.17689000  0.84578000  1.0
  H  H402  1  0.26324000  0.20522000  0.89726000  1.0
  H  H403  1  0.39270000  0.16964000  0.91556000  1.0
  H  H404  1  0.93354000  0.13496000  0.73751000  1.0
  H  H405  1  0.78544000  0.08537000  0.63967000  1.0
  H  H406  1  0.83742000  0.02370000  0.65011000  1.0
  H  H407  1  0.93582000  0.01816000  0.70353000  1.0
  H  H408  1  0.09786000  0.06300000  0.68377000  1.0
  H  H409  1  0.05696000  0.02574000  0.62301000  1.0
  H  H410  1  0.10126000  0.95984000  0.60899000  1.0
  H  H411  1  0.22496000  0.97027000  0.71781000  1.0
  H  H412  1  0.03048000  0.98991000  0.85335000  1.0
  H  H413  1  0.03186000  0.04049000  0.96887000  1.0
  H  H414  1  0.10664000  0.09565000  0.95079000  1.0
  H  H415  1  0.13272000  0.09875000  0.88426000  1.0
  H  H416  1  0.66872000  0.16032000  0.92118000  1.0
  H  H417  1  0.94226000  0.13074000  0.90728000  1.0
  H  H418  1  0.90194000  0.06416000  0.89224000  1.0
  H  H419  1  0.74506000  0.04502000  0.88963000  1.0
  H  H420  1  0.04096000  0.28330000  0.88869000  1.0
  H  H421  1  0.01186000  0.40328000  0.90366000  1.0
  H  H422  1  0.91256000  0.39981000  0.95683000  1.0
  H  H423  1  0.88096000  0.33893000  0.97604000  1.0
  H  H424  1  0.72894000  0.30920000  0.93619000  1.0
  H  H425  1  0.66496000  0.37139000  0.95702000  1.0
  H  H426  1  0.62168000  0.38993000  0.02221000  1.0
  H  H427  1  0.71520000  0.28293000  0.04539000  1.0
  H  H428  1  0.93840000  0.13567000  0.01338000  1.0
  H  H429  1  0.22196000  0.13644000  0.03924000  1.0
  H  H430  1  0.23724000  0.19507000  0.01476000  1.0
  H  H431  1  0.10594000  0.22352000  0.99008000  1.0
  H  H432  1  0.75944000  0.43263000  0.70121000  1.0
  H  H433  1  0.57830000  0.34503000  0.71041000  1.0
  H  H434  1  0.65628000  0.30372000  0.65979000  1.0
  H  H435  1  0.78800000  0.32701000  0.62920000  1.0
  H  H436  1  0.36334000  0.40057000  0.79202000  1.0
  H  H437  1  0.17530000  0.45219000  0.87564000  1.0
  H  H438  1  0.25378000  0.51113000  0.87675000  1.0
  H  H439  1  0.37998000  0.51553000  0.83386000  1.0
  H  H440  1  0.53130000  0.47464000  0.85407000  1.0
  H  H441  1  0.49946000  0.51692000  0.91309000  1.0
  H  H442  1  0.57214000  0.57854000  0.92553000  1.0
  H  H443  1  0.70428000  0.55403000  0.81860000  1.0
  H  H444  1  0.47468000  0.53797000  0.68072000  1.0
  H  H445  1  0.54942000  0.49438000  0.56761000  1.0
  H  H446  1  0.61962000  0.44075000  0.59009000  1.0
  H  H447  1  0.61364000  0.43572000  0.65703000  1.0
  H  H448  1  0.11154000  0.33153000  0.60949000  1.0
  H  H449  1  0.34350000  0.37190000  0.66924000  1.0
  H  H450  1  0.27932000  0.43536000  0.68275000  1.0
  H  H451  1  0.12816000  0.44691000  0.66111000  1.0
  H  H452  1  0.61216000  0.23317000  0.61745000  1.0
  H  H453  1  0.55142000  0.15828000  0.69568000  1.0
  H  H454  1  0.39114000  0.16761000  0.68498000  1.0
  H  H455  1  0.34330000  0.21066000  0.64262000  1.0
  H  H456  1  0.31680000  0.17875000  0.58411000  1.0
  H  H457  1  0.32614000  0.11621000  0.54611000  1.0
  H  H458  1  0.28518000  0.10776000  0.47951000  1.0
  H  H459  1  0.22828000  0.22544000  0.49118000  1.0
  H  H460  1  0.41560000  0.33323000  0.49497000  1.0
  H  H461  1  0.40218000  0.45345000  0.52387000  1.0
  H  H462  1  0.39742000  0.44630000  0.58966000  1.0
  H  H463  1  0.40066000  0.38401000  0.60747000  1.0
  H  H464  1  0.98138000  0.60826000  0.39000000  1.0
  H  H465  1  0.02644000  0.72709000  0.41248000  1.0
  H  H466  1  0.76980000  0.68361000  0.37394000  1.0
  H  H467  1  0.77070000  0.78485000  0.40471000  1.0
  H  H468  1  0.74350000  0.74531000  0.37077000  1.0
  H  H469  1  0.75146000  0.74152000  0.42069000  1.0
  H  H470  1  0.75922000  0.87971000  0.38713000  1.0
  H  H471  1  0.56216000  0.80328000  0.33353000  1.0
  H  H472  1  0.76094000  0.84957000  0.26813000  1.0
  H  H473  1  0.59894000  0.74929000  0.23878000  1.0
  H  H474  1  0.64544000  0.75202000  0.28442000  1.0
  H  H475  1  0.52998000  0.76743000  0.27761000  1.0
  H  H476  1  0.46736000  0.91085000  0.12699000  1.0
  H  H477  1  0.61928000  0.85712000  0.20463000  1.0
  H  H478  1  0.34030000  0.87755000  0.22298000  1.0
  H  H479  1  0.48818000  0.86825000  0.30680000  1.0
  H  H480  1  0.54538000  0.89908000  0.28078000  1.0
  H  H481  1  0.42248000  0.89756000  0.28239000  1.0
  H  H482  1  0.19062000  0.62715000  0.13858000  1.0
  H  H483  1  0.22602000  0.74579000  0.16362000  1.0
  H  H484  1  0.38508000  0.67444000  0.22051000  1.0
  H  H485  1  0.44258000  0.78253000  0.21547000  1.0
  H  H486  1  0.45940000  0.73998000  0.18420000  1.0
  H  H487  1  0.37424000  0.77373000  0.17465000  1.0
  H  H488  1  0.54512000  0.13809000  0.88328000  1.0
  H  H489  1  0.34986000  0.05279000  0.89263000  1.0
  H  H490  1  0.62200000  0.03780000  0.92492000  1.0
  H  H491  1  0.44922000  0.97835000  0.96281000  1.0
  H  H492  1  0.56010000  0.99098000  0.95126000  1.0
  H  H493  1  0.48236000  0.02588000  0.97558000  1.0
  H  H494  1  0.16482000  0.39589000  0.88983000  1.0
  H  H495  1  0.05868000  0.29595000  0.82566000  1.0
  H  H496  1  0.24950000  0.36128000  0.77607000  1.0
  H  H497  1  0.10304000  0.28963000  0.71356000  1.0
  H  H498  1  0.03996000  0.32147000  0.74618000  1.0
  H  H499  1  0.14678000  0.33552000  0.72752000  1.0
  H  H500  1  0.95844000  0.36081000  0.66010000  1.0
  H  H501  1  0.77238000  0.43681000  0.62259000  1.0
  H  H502  1  0.04964000  0.43831000  0.58997000  1.0
  H  H503  1  0.81040000  0.49165000  0.54725000  1.0
  H  H504  1  0.77892000  0.44650000  0.55623000  1.0
  H  H505  1  0.76774000  0.48797000  0.59245000  1.0
  H  H506  1  0.68532000  0.13187000  0.66738000  1.0
  H  H507  1  0.94148000  0.18279000  0.69743000  1.0
  H  H508  1  0.72368000  0.24931000  0.66817000  1.0
  H  H509  1  0.96838000  0.28443000  0.66195000  1.0
  H  H510  1  0.96376000  0.23681000  0.63974000  1.0
  H  H511  1  0.86738000  0.26790000  0.63843000  1.0
  H  H512  1  0.47786000  0.45074000  0.46988000  1.0
  H  H513  1  0.36948000  0.41436000  0.36026000  1.0
  H  H514  1  0.33960000  0.34551000  0.44451000  1.0
  H  H515  1  0.18852000  0.33525000  0.35300000  1.0
  H  H516  1  0.18844000  0.35828000  0.40034000  1.0
  H  H517  1  0.20984000  0.38435000  0.36185000  1.0
  H  H518  1  0.23288000  0.92811000  0.59503000  1.0
  H  H519  1  0.19266000  0.90549000  0.70654000  1.0
  H  H520  1  0.32698000  0.82530000  0.62564000  1.0
  H  H521  1  0.21994000  0.79037000  0.70936000  1.0
  H  H522  1  0.16312000  0.80511000  0.67093000  1.0
  H  H523  1  0.27754000  0.78640000  0.66580000  1.0
  H  H524  1  0.95808000  0.10308000  0.07388000  1.0
  H  H525  1  0.19468000  0.07432000  0.00786000  1.0
  H  H526  1  0.10390000  0.00233000  0.08277000  1.0
  H  H527  1  0.28776000  0.97863000  0.98881000  1.0
  H  H528  1  0.19352000  0.00437000  0.97673000  1.0
  H  H529  1  0.29872000  0.02809000  0.99222000  1.0
  H  H530  1  0.71952000  0.60181000  0.93863000  1.0
  H  H531  1  0.82772000  0.70052000  0.90328000  1.0
  H  H532  1  0.67954000  0.62137000  0.82626000  1.0
  H  H533  1  0.83662000  0.68758000  0.78583000  1.0
  H  H534  1  0.86430000  0.64832000  0.80766000  1.0
  H  H535  1  0.75582000  0.65109000  0.78438000  1.0
  H  H536  1  0.14856000  0.11188000  0.44188000  1.0
  H  H537  1  0.15716000  0.15010000  0.33545000  1.0
  H  H538  1  0.29764000  0.21058000  0.42886000  1.0
  H  H539  1  0.37036000  0.22219000  0.32914000  1.0
  H  H540  1  0.39136000  0.21494000  0.37594000  1.0
  H  H541  1  0.37188000  0.17537000  0.33869000  1.0
  H  H542  1  0.04670000  0.97644000  0.97403000  1.0
  H  H543  1  0.88992000  0.97131000  0.87357000  1.0
  H  H544  1  0.83596000  0.89520000  0.94952000  1.0
  H  H545  1  0.65378000  0.92198000  0.87833000  1.0
  H  H546  1  0.68912000  0.93112000  0.92599000  1.0
  H  H547  1  0.71220000  0.96456000  0.89421000  1.0
  H  H548  1  0.67330000  0.40778000  0.08123000  1.0
  H  H549  1  0.59776000  0.29468000  0.08872000  1.0
  H  H550  1  0.53582000  0.38243000  0.17836000  1.0
  H  H551  1  0.40880000  0.28583000  0.16420000  1.0
  H  H552  1  0.40172000  0.33358000  0.15768000  1.0
  H  H553  1  0.42458000  0.29661000  0.11822000  1.0
  H  H554  1  0.55820000  0.56287000  0.57191000  1.0
  H  H555  1  0.30702000  0.62068000  0.56422000  1.0
  H  H556  1  0.33804000  0.54625000  0.64354000  1.0
  H  H557  1  0.10030000  0.57518000  0.60984000  1.0
  H  H558  1  0.16884000  0.56945000  0.56888000  1.0
  H  H559  1  0.18302000  0.53904000  0.60433000  1.0
  N  N560  1  0.68636000  0.57811000  0.33784000  1.0
  N  N561  1  0.39966000  0.56169000  0.21397000  1.0
  N  N562  1  0.59626000  0.49348000  0.19495000  1.0
  N  N563  1  0.48344000  0.51479000  0.35878000  1.0
  N  N564  1  0.26452000  0.68176000  0.42440000  1.0
  N  N565  1  0.54778000  0.80425000  0.44620000  1.0
  N  N566  1  0.33976000  0.81905000  0.51180000  1.0
  N  N567  1  0.48024000  0.66148000  0.49501000  1.0
  N  N568  1  0.17144000  0.94812000  0.18615000  1.0
  N  N569  1  0.92160000  0.94205000  0.30061000  1.0
  N  N570  1  0.04354000  0.04758000  0.32122000  1.0
  N  N571  1  0.92800000  0.01855000  0.16632000  1.0
  N  N572  1  0.76070000  0.85033000  0.10711000  1.0
  N  N573  1  0.05480000  0.72647000  0.07694000  1.0
  N  N574  1  0.84050000  0.71151000  0.01711000  1.0
  N  N575  1  0.96100000  0.87462000  0.04204000  1.0
  N  N576  1  0.23736000  0.12642000  0.83539000  1.0
  N  N577  1  0.94136000  0.07639000  0.72224000  1.0
  N  N578  1  0.15834000  0.01748000  0.70404000  1.0
  N  N579  1  0.08178000  0.04457000  0.86579000  1.0
  N  N580  1  0.80746000  0.14869000  0.91469000  1.0
  N  N581  1  0.95410000  0.30822000  0.93163000  1.0
  N  N582  1  0.72428000  0.29315000  0.98980000  1.0
  N  N583  1  0.01518000  0.18175000  0.00148000  1.0
  N  N584  1  0.66498000  0.39071000  0.70808000  1.0
  N  N585  1  0.37722000  0.45815000  0.81128000  1.0
  N  N586  1  0.61640000  0.51320000  0.83335000  1.0
  N  N587  1  0.54640000  0.48700000  0.67227000  1.0
  N  N588  1  0.23358000  0.34928000  0.63676000  1.0
  N  N589  1  0.47522000  0.22232000  0.62659000  1.0
  N  N590  1  0.27368000  0.20513000  0.53936000  1.0
  N  N591  1  0.40772000  0.35573000  0.55197000  1.0
  O  O592  1  0.87286000  0.74725000  0.39265000  1.0
  O  O593  1  0.63016000  0.80253000  0.26330000  1.0
  O  O594  1  0.48586000  0.85184000  0.25009000  1.0
  O  O595  1  0.34414000  0.74358000  0.21770000  1.0
  O  O596  1  0.45668000  0.00708000  0.91860000  1.0
  O  O597  1  0.15596000  0.29871000  0.76635000  1.0
  O  O598  1  0.89804000  0.46922000  0.58112000  1.0
  O  O599  1  0.89282000  0.25041000  0.68973000  1.0
  O  O600  1  0.31350000  0.34938000  0.37419000  1.0
  O  O601  1  0.26616000  0.83993000  0.69632000  1.0
  O  O602  1  0.22468000  0.00877000  0.03392000  1.0
  O  O603  1  0.77038000  0.68653000  0.83514000  1.0
  O  O604  1  0.25918000  0.20782000  0.35689000  1.0
  O  O605  1  0.78884000  0.91556000  0.88596000  1.0
  O  O606  1  0.53004000  0.30996000  0.15604000  1.0
  O  O607  1  0.22942000  0.59386000  0.61879000  1.0
