# generated using pymatgen
data_ZnH3(C3O2)3
_symmetry_space_group_name_H-M   'P 1'
_cell_length_a   16.24500000
_cell_length_b   28.45350000
_cell_length_c   30.28820000
_cell_angle_alpha   90.00000000
_cell_angle_beta   90.00000000
_cell_angle_gamma   90.00000000
_symmetry_Int_Tables_number   1
_chemical_formula_structural   ZnH3(C3O2)3
_chemical_formula_sum   'Zn16 H48 C144 O96'
_cell_volume   14000.02707738
_cell_formula_units_Z   16
loop_
 _symmetry_equiv_pos_site_id
 _symmetry_equiv_pos_as_xyz
  1  'x, y, z'
loop_
 _atom_site_type_symbol
 _atom_site_label
 _atom_site_symmetry_multiplicity
 _atom_site_fract_x
 _atom_site_fract_y
 _atom_site_fract_z
 _atom_site_occupancy
  C  C0  1  0.05918000  0.56664000  0.42992000  1.0
  C  C1  1  0.24468000  0.53556000  0.31105000  1.0
  C  C2  1  0.16378000  0.67790000  0.36680000  1.0
  C  C3  1  0.97720000  0.59062000  0.30211000  1.0
  C  C4  1  0.49652000  0.94782000  0.44286000  1.0
  C  C5  1  0.31130000  0.98561000  0.32806000  1.0
  C  C6  1  0.39358000  0.83481000  0.37012000  1.0
  C  C7  1  0.57434000  0.93518000  0.32151000  1.0
  C  C8  1  0.55580000  0.45565000  0.08194000  1.0
  C  C9  1  0.74290000  0.49037000  0.19567000  1.0
  C  C10  1  0.66354000  0.34002000  0.15194000  1.0
  C  C11  1  0.48118000  0.43656000  0.20283000  1.0
  C  C12  1  0.99174000  0.07320000  0.09689000  1.0
  C  C13  1  0.80926000  0.03926000  0.21622000  1.0
  C  C14  1  0.89246000  0.18288000  0.16259000  1.0
  C  C15  1  0.07862000  0.09169000  0.22472000  1.0
  C  C16  1  0.99298000  0.45172000  0.58504000  1.0
  C  C17  1  0.79480000  0.48800000  0.69496000  1.0
  C  C18  1  0.88752000  0.34366000  0.65185000  1.0
  C  C19  1  0.06146000  0.43773000  0.71549000  1.0
  C  C20  1  0.55484000  0.06648000  0.59595000  1.0
  C  C21  1  0.73456000  0.03812000  0.71550000  1.0
  C  C22  1  0.65884000  0.18638000  0.66052000  1.0
  C  C23  1  0.47034000  0.09390000  0.71535000  1.0
  C  C24  1  0.49202000  0.57591000  0.93032000  1.0
  C  C25  1  0.29370000  0.54087000  0.82110000  1.0
  C  C26  1  0.38866000  0.68525000  0.86535000  1.0
  C  C27  1  0.56066000  0.59066000  0.79992000  1.0
  C  C28  1  0.05460000  0.95962000  0.94083000  1.0
  C  C29  1  0.23334000  0.99457000  0.82191000  1.0
  C  C30  1  0.16078000  0.84316000  0.86940000  1.0
  C  C31  1  0.96974000  0.93618000  0.82087000  1.0
  C  C32  1  0.30560000  0.46109000  0.28115000  1.0
  C  C33  1  0.30928000  0.50967000  0.28743000  1.0
  C  C34  1  0.36038000  0.43782000  0.25496000  1.0
  C  C35  1  0.37496000  0.53390000  0.26718000  1.0
  C  C36  1  0.42520000  0.46080000  0.23362000  1.0
  C  C37  1  0.43286000  0.50967000  0.24105000  1.0
  C  C38  1  0.26838000  0.38838000  0.27711000  1.0
  C  C39  1  0.11476000  0.04340000  0.29152000  1.0
  C  C40  1  0.13884000  0.07083000  0.25539000  1.0
  C  C41  1  0.16992000  0.01851000  0.31619000  1.0
  C  C42  1  0.22396000  0.07300000  0.24611000  1.0
  C  C43  1  0.25366000  0.01761000  0.30601000  1.0
  C  C44  1  0.28058000  0.04611000  0.27075000  1.0
  C  C45  1  0.04740000  0.00091000  0.33832000  1.0
  C  C46  1  0.77882000  0.54670000  0.25511000  1.0
  C  C47  1  0.80218000  0.52115000  0.21788000  1.0
  C  C48  1  0.83378000  0.57138000  0.27971000  1.0
  C  C49  1  0.88572000  0.52307000  0.20527000  1.0
  C  C50  1  0.91784000  0.57156000  0.27016000  1.0
  C  C51  1  0.94346000  0.54751000  0.23167000  1.0
  C  C52  1  0.71558000  0.57389000  0.31237000  1.0
  C  C53  1  0.74940000  0.96369000  0.24407000  1.0
  C  C54  1  0.74528000  0.01247000  0.23952000  1.0
  C  C55  1  0.69504000  0.93920000  0.26951000  1.0
  C  C56  1  0.67976000  0.03570000  0.26092000  1.0
  C  C57  1  0.63016000  0.96106000  0.29179000  1.0
  C  C58  1  0.62220000  0.01022000  0.28629000  1.0
  C  C59  1  0.78702000  0.89092000  0.24517000  1.0
  C  C60  1  0.67970000  0.58805000  0.74694000  1.0
  C  C61  1  0.61194000  0.56640000  0.76687000  1.0
  C  C62  1  0.73462000  0.56371000  0.72169000  1.0
  C  C63  1  0.60042000  0.51801000  0.75825000  1.0
  C  C64  1  0.72810000  0.51528000  0.71524000  1.0
  C  C65  1  0.65858000  0.49259000  0.73323000  1.0
  C  C66  1  0.78026000  0.63441000  0.73022000  1.0
  C  C67  1  0.87392000  0.00280000  0.72690000  1.0
  C  C68  1  0.79192000  0.00777000  0.73966000  1.0
  C  C69  1  0.92948000  0.97891000  0.75198000  1.0
  C  C70  1  0.76692000  0.98456000  0.77863000  1.0
  C  C71  1  0.90748000  0.95643000  0.79130000  1.0
  C  C72  1  0.82394000  0.95850000  0.80388000  1.0
  C  C73  1  0.99422000  0.01159000  0.69780000  1.0
  C  C74  1  0.16064000  0.53419000  0.78073000  1.0
  C  C75  1  0.22834000  0.51273000  0.80062000  1.0
  C  C76  1  0.10494000  0.50960000  0.75642000  1.0
  C  C77  1  0.23554000  0.46351000  0.79619000  1.0
  C  C78  1  0.11318000  0.46140000  0.74862000  1.0
  C  C79  1  0.17906000  0.43812000  0.76985000  1.0
  C  C80  1  0.07574000  0.58353000  0.75142000  1.0
  C  C81  1  0.27050000  0.04895000  0.76060000  1.0
  C  C82  1  0.29292000  0.02454000  0.79875000  1.0
  C  C83  1  0.32598000  0.07330000  0.73592000  1.0
  C  C84  1  0.37616000  0.02698000  0.81183000  1.0
  C  C85  1  0.40964000  0.07421000  0.74627000  1.0
  C  C86  1  0.43434000  0.05100000  0.78540000  1.0
  C  C87  1  0.20840000  0.07557000  0.70274000  1.0
  C  C88  1  0.07164000  0.47012000  0.51541000  1.0
  C  C89  1  0.00752000  0.48012000  0.54482000  1.0
  C  C90  1  0.08858000  0.49772000  0.47971000  1.0
  C  C91  1  0.96022000  0.52073000  0.53580000  1.0
  C  C92  1  0.04326000  0.53817000  0.46990000  1.0
  C  C93  1  0.97788000  0.54934000  0.49889000  1.0
  C  C94  1  0.17538000  0.44023000  0.48069000  1.0
  C  C95  1  0.46808000  0.01882000  0.48960000  1.0
  C  C96  1  0.50998000  0.97650000  0.48289000  1.0
  C  C97  1  0.48264000  0.04691000  0.52512000  1.0
  C  C98  1  0.56838000  0.96354000  0.51534000  1.0
  C  C99  1  0.54030000  0.03545000  0.55766000  1.0
  C  C100  1  0.58322000  0.99262000  0.55235000  1.0
  C  C101  1  0.39042000  0.08020000  0.48434000  1.0
  C  C102  1  0.47552000  0.47830000  0.01422000  1.0
  C  C103  1  0.54024000  0.48664000  0.04363000  1.0
  C  C104  1  0.45918000  0.50720000  0.97943000  1.0
  C  C105  1  0.58848000  0.52720000  0.03586000  1.0
  C  C106  1  0.50626000  0.54723000  0.97034000  1.0
  C  C107  1  0.57188000  0.55701000  0.99961000  1.0
  C  C108  1  0.37178000  0.44997000  0.97842000  1.0
  C  C109  1  0.98094000  0.97640000  0.01203000  1.0
  C  C110  1  0.03824000  0.98949000  0.97979000  1.0
  C  C111  1  0.96478000  0.00348000  0.04812000  1.0
  C  C112  1  0.07870000  0.03295000  0.98598000  1.0
  C  C113  1  0.00468000  0.04620000  0.05577000  1.0
  C  C114  1  0.06236000  0.06089000  0.02358000  1.0
  C  C115  1  0.89126000  0.94039000  0.05243000  1.0
  C  C116  1  0.19678000  0.76423000  0.36648000  1.0
  C  C117  1  0.22272000  0.71742000  0.36874000  1.0
  C  C118  1  0.25070000  0.80095000  0.36622000  1.0
  C  C119  1  0.30856000  0.70958000  0.37105000  1.0
  C  C120  1  0.33594000  0.79458000  0.36879000  1.0
  C  C121  1  0.36440000  0.74768000  0.37139000  1.0
  C  C122  1  0.12724000  0.82875000  0.36165000  1.0
  C  C123  1  0.74994000  0.21677000  0.15604000  1.0
  C  C124  1  0.83508000  0.22310000  0.15932000  1.0
  C  C125  1  0.69634000  0.25356000  0.15349000  1.0
  C  C126  1  0.86378000  0.27002000  0.16020000  1.0
  C  C127  1  0.72238000  0.30040000  0.15459000  1.0
  C  C128  1  0.80814000  0.30817000  0.15813000  1.0
  C  C129  1  0.62644000  0.18900000  0.15188000  1.0
  C  C130  1  0.80106000  0.22097000  0.66227000  1.0
  C  C131  1  0.71590000  0.22680000  0.65848000  1.0
  C  C132  1  0.85474000  0.25764000  0.65925000  1.0
  C  C133  1  0.68716000  0.27311000  0.65146000  1.0
  C  C134  1  0.82864000  0.30398000  0.65273000  1.0
  C  C135  1  0.74278000  0.31127000  0.64895000  1.0
  C  C136  1  0.92448000  0.19407000  0.67040000  1.0
  C  C137  1  0.24602000  0.71964000  0.86978000  1.0
  C  C138  1  0.33130000  0.72565000  0.86666000  1.0
  C  C139  1  0.19264000  0.75662000  0.87059000  1.0
  C  C140  1  0.36024000  0.77245000  0.86383000  1.0
  C  C141  1  0.21906000  0.80329000  0.86775000  1.0
  C  C142  1  0.30482000  0.81074000  0.86411000  1.0
  C  C143  1  0.12222000  0.69235000  0.87452000  1.0
  H  H144  1  0.38098000  0.57160000  0.27097000  1.0
  H  H145  1  0.48162000  0.52960000  0.22542000  1.0
  H  H146  1  0.23422000  0.35615000  0.28184000  1.0
  H  H147  1  0.24650000  0.09322000  0.21833000  1.0
  H  H148  1  0.34500000  0.04678000  0.26154000  1.0
  H  H149  1  0.99726000  0.98496000  0.35641000  1.0
  H  H150  1  0.90710000  0.50366000  0.17673000  1.0
  H  H151  1  0.00802000  0.54633000  0.22278000  1.0
  H  H152  1  0.66780000  0.58164000  0.33614000  1.0
  H  H153  1  0.67344000  0.07351000  0.25852000  1.0
  H  H154  1  0.57338000  0.02931000  0.30278000  1.0
  H  H155  1  0.82128000  0.85898000  0.23909000  1.0
  H  H156  1  0.54950000  0.49909000  0.77300000  1.0
  H  H157  1  0.65048000  0.45504000  0.72919000  1.0
  H  H158  1  0.81894000  0.66527000  0.72815000  1.0
  H  H159  1  0.70384000  0.98714000  0.78996000  1.0
  H  H160  1  0.80348000  0.94218000  0.83427000  1.0
  H  H161  1  0.04302000  0.02249000  0.67580000  1.0
  H  H162  1  0.28714000  0.44510000  0.81081000  1.0
  H  H163  1  0.18848000  0.40079000  0.76500000  1.0
  H  H164  1  0.04570000  0.61604000  0.74228000  1.0
  H  H165  1  0.39700000  0.00848000  0.84102000  1.0
  H  H166  1  0.49856000  0.05044000  0.79499000  1.0
  H  H167  1  0.16104000  0.08320000  0.67869000  1.0
  H  H168  1  0.91004000  0.53082000  0.55735000  1.0
  H  H169  1  0.93988000  0.58000000  0.49310000  1.0
  H  H170  1  0.22566000  0.41718000  0.47181000  1.0
  H  H171  1  0.60312000  0.93124000  0.51214000  1.0
  H  H172  1  0.62856000  0.98164000  0.57644000  1.0
  H  H173  1  0.34562000  0.10517000  0.47219000  1.0
  H  H174  1  0.63932000  0.53592000  0.05749000  1.0
  H  H175  1  0.61102000  0.58732000  0.99441000  1.0
  H  H176  1  0.32136000  0.42739000  0.96870000  1.0
  H  H177  1  0.12352000  0.04526000  0.96216000  1.0
  H  H178  1  0.09562000  0.09360000  0.02754000  1.0
  H  H179  1  0.84824000  0.91424000  0.06422000  1.0
  H  H180  1  0.33276000  0.67416000  0.37265000  1.0
  H  H181  1  0.42968000  0.74024000  0.37342000  1.0
  H  H182  1  0.07634000  0.85311000  0.35916000  1.0
  H  H183  1  0.92898000  0.27740000  0.16291000  1.0
  H  H184  1  0.83250000  0.34358000  0.15902000  1.0
  H  H185  1  0.57540000  0.16464000  0.15037000  1.0
  H  H186  1  0.62188000  0.28004000  0.64822000  1.0
  H  H187  1  0.71836000  0.34630000  0.64404000  1.0
  H  H188  1  0.97544000  0.17021000  0.67551000  1.0
  H  H189  1  0.42548000  0.77965000  0.86104000  1.0
  H  H190  1  0.32938000  0.84605000  0.86192000  1.0
  H  H191  1  0.07098000  0.66820000  0.87676000  1.0
  O  O192  1  0.01342000  0.60351000  0.42201000  1.0
  O  O193  1  0.11552000  0.55344000  0.40095000  1.0
  O  O194  1  0.19754000  0.51731000  0.34133000  1.0
  O  O195  1  0.22746000  0.57917000  0.30233000  1.0
  O  O196  1  0.95404000  0.62261000  0.33030000  1.0
  O  O197  1  0.05076000  0.57128000  0.30556000  1.0
  O  O198  1  0.08486000  0.68554000  0.37034000  1.0
  O  O199  1  0.19090000  0.63469000  0.36000000  1.0
  O  O200  1  0.54268000  0.91051000  0.43639000  1.0
  O  O201  1  0.44102000  0.96150000  0.41386000  1.0
  O  O202  1  0.31168000  0.97723000  0.37044000  1.0
  O  O203  1  0.36890000  0.96372000  0.30646000  1.0
  O  O204  1  0.59846000  0.89583000  0.33971000  1.0
  O  O205  1  0.50284000  0.95410000  0.33128000  1.0
  O  O206  1  0.47016000  0.82738000  0.38149000  1.0
  O  O207  1  0.36634000  0.87736000  0.36121000  1.0
  O  O208  1  0.51142000  0.41738000  0.08693000  1.0
  O  O209  1  0.61162000  0.46835000  0.11110000  1.0
  O  O210  1  0.74302000  0.48168000  0.15337000  1.0
  O  O211  1  0.68476000  0.46889000  0.21720000  1.0
  O  O212  1  0.45772000  0.39791000  0.18310000  1.0
  O  O213  1  0.55202000  0.45654000  0.19359000  1.0
  O  O214  1  0.58784000  0.33219000  0.13911000  1.0
  O  O215  1  0.68900000  0.38259000  0.16203000  1.0
  O  O216  1  0.03900000  0.10925000  0.10547000  1.0
  O  O217  1  0.93632000  0.05940000  0.12613000  1.0
  O  O218  1  0.85528000  0.02203000  0.18495000  1.0
  O  O219  1  0.82720000  0.08249000  0.22625000  1.0
  O  O220  1  0.10180000  0.12439000  0.19723000  1.0
  O  O221  1  0.00416000  0.07341000  0.22142000  1.0
  O  O222  1  0.97170000  0.18975000  0.15959000  1.0
  O  O223  1  0.86394000  0.13987000  0.16895000  1.0
  O  O224  1  0.04452000  0.41773000  0.59498000  1.0
  O  O225  1  0.93176000  0.46339000  0.61140000  1.0
  O  O226  1  0.84414000  0.50430000  0.66470000  1.0
  O  O227  1  0.81274000  0.44554000  0.70755000  1.0
  O  O228  1  0.09240000  0.40282000  0.69282000  1.0
  O  O229  1  0.98888000  0.45557000  0.70616000  1.0
  O  O230  1  0.96652000  0.33507000  0.64947000  1.0
  O  O231  1  0.85926000  0.38685000  0.65535000  1.0
  O  O232  1  0.51654000  0.10680000  0.59850000  1.0
  O  O233  1  0.60488000  0.05313000  0.62799000  1.0
  O  O234  1  0.73488000  0.04352000  0.67276000  1.0
  O  O235  1  0.67722000  0.06194000  0.73533000  1.0
  O  O236  1  0.45026000  0.12798000  0.68860000  1.0
  O  O237  1  0.54364000  0.07425000  0.71249000  1.0
  O  O238  1  0.58228000  0.19145000  0.64829000  1.0
  O  O239  1  0.68580000  0.14468000  0.67333000  1.0
  O  O240  1  0.54476000  0.60928000  0.92036000  1.0
  O  O241  1  0.43014000  0.56515000  0.90414000  1.0
  O  O242  1  0.34324000  0.52495000  0.85141000  1.0
  O  O243  1  0.31132000  0.58330000  0.80821000  1.0
  O  O244  1  0.59236000  0.62526000  0.82268000  1.0
  O  O245  1  0.48776000  0.57326000  0.80940000  1.0
  O  O246  1  0.46796000  0.69306000  0.86756000  1.0
  O  O247  1  0.35914000  0.64243000  0.86093000  1.0
  O  O248  1  0.01876000  0.91864000  0.93748000  1.0
  O  O249  1  0.10316000  0.97488000  0.90882000  1.0
  O  O250  1  0.23544000  0.98576000  0.86415000  1.0
  O  O251  1  0.17400000  0.97315000  0.80143000  1.0
  O  O252  1  0.95102000  0.90131000  0.84700000  1.0
  O  O253  1  0.04258000  0.95634000  0.82358000  1.0
  O  O254  1  0.08546000  0.83674000  0.88317000  1.0
  O  O255  1  0.18584000  0.88577000  0.85824000  1.0
  O  O256  1  0.33588000  0.39129000  0.25274000  1.0
  O  O257  1  0.24674000  0.42909000  0.29484000  1.0
  O  O258  1  0.12592000  0.99124000  0.34576000  1.0
  O  O259  1  0.03660000  0.03174000  0.30608000  1.0
  O  O260  1  0.79268000  0.58822000  0.31653000  1.0
  O  O261  1  0.70334000  0.54863000  0.27628000  1.0
  O  O262  1  0.71978000  0.89265000  0.26984000  1.0
  O  O263  1  0.80824000  0.93241000  0.22895000  1.0
  O  O264  1  0.79896000  0.59372000  0.71156000  1.0
  O  O265  1  0.70976000  0.63323000  0.75211000  1.0
  O  O266  1  0.00630000  0.98483000  0.73298000  1.0
  O  O267  1  0.91620000  0.02382000  0.69249000  1.0
  O  O268  1  0.05136000  0.54169000  0.73752000  1.0
  O  O269  1  0.14128000  0.58144000  0.77729000  1.0
  O  O270  1  0.28562000  0.08980000  0.69877000  1.0
  O  O271  1  0.19540000  0.05075000  0.73904000  1.0
  O  O272  1  0.15498000  0.47809000  0.45778000  1.0
  O  O273  1  0.12786000  0.43355000  0.51564000  1.0
  O  O274  1  0.43242000  0.08604000  0.52136000  1.0
  O  O275  1  0.40908000  0.04062000  0.46371000  1.0
  O  O276  1  0.39286000  0.48849000  0.95671000  1.0
  O  O277  1  0.41894000  0.44192000  0.01322000  1.0
  O  O278  1  0.90756000  0.97990000  0.07376000  1.0
  O  O279  1  0.93328000  0.93619000  0.01521000  1.0
  O  O280  1  0.20528000  0.84201000  0.36330000  1.0
  O  O281  1  0.11804000  0.78256000  0.36335000  1.0
  O  O282  1  0.61754000  0.23523000  0.15093000  1.0
  O  O283  1  0.70432000  0.17569000  0.15490000  1.0
  O  O284  1  0.93346000  0.23991000  0.66471000  1.0
  O  O285  1  0.84658000  0.18050000  0.66924000  1.0
  O  O286  1  0.11366000  0.73861000  0.87359000  1.0
  O  O287  1  0.20004000  0.67875000  0.87237000  1.0
  Zn  Zn288  1  0.03142000  0.63124000  0.37021000  1.0
  Zn  Zn289  1  0.14336000  0.57579000  0.34377000  1.0
  Zn  Zn290  1  0.54756000  0.87227000  0.38810000  1.0
  Zn  Zn291  1  0.40468000  0.93938000  0.35974000  1.0
  Zn  Zn292  1  0.50890000  0.37676000  0.13374000  1.0
  Zn  Zn293  1  0.64970000  0.44422000  0.16402000  1.0
  Zn  Zn294  1  0.02306000  0.13490000  0.15839000  1.0
  Zn  Zn295  1  0.91042000  0.08015000  0.18405000  1.0
  Zn  Zn296  1  0.04558000  0.37943000  0.64348000  1.0
  Zn  Zn297  1  0.90044000  0.44667000  0.66811000  1.0
  Zn  Zn298  1  0.53010000  0.13685000  0.64943000  1.0
  Zn  Zn299  1  0.64252000  0.08269000  0.68032000  1.0
  Zn  Zn300  1  0.54602000  0.64809000  0.87235000  1.0
  Zn  Zn301  1  0.39932000  0.58246000  0.84757000  1.0
  Zn  Zn302  1  0.03174000  0.89092000  0.88532000  1.0
  Zn  Zn303  1  0.14170000  0.94788000  0.85526000  1.0
