# generated using pymatgen
data_Cu4H104PdPt2C148S4(NO2)16
_symmetry_space_group_name_H-M   'P 1'
_cell_length_a   22.10685000
_cell_length_b   35.71530000
_cell_length_c   35.86300000
_cell_angle_alpha   90.98700000
_cell_angle_beta   89.95600000
_cell_angle_gamma   89.95600000
_symmetry_Int_Tables_number   1
_chemical_formula_structural   Cu4H104PdPt2C148S4(NO2)16
_chemical_formula_sum   'Cu4 H104 Pd1 Pt2 C148 S4 N16 O32'
_cell_volume   28311.51312665
_cell_formula_units_Z   1
loop_
 _symmetry_equiv_pos_site_id
 _symmetry_equiv_pos_as_xyz
  1  'x, y, z'
loop_
 _atom_site_type_symbol
 _atom_site_label
 _atom_site_symmetry_multiplicity
 _atom_site_fract_x
 _atom_site_fract_y
 _atom_site_fract_z
 _atom_site_occupancy
  C  C0  1  0.91774000  0.02025000  0.11713000  1.0
  C  C1  1  0.90468000  0.05121000  0.09486000  1.0
  C  C2  1  0.88758000  0.08604000  0.10899000  1.0
  C  C3  1  0.88188000  0.10915000  0.07918000  1.0
  C  C4  1  0.89468000  0.08767000  0.04758000  1.0
  C  C5  1  0.00060000  0.92451000  0.03404000  1.0
  C  C6  1  0.89788000  0.07833000  0.97910000  1.0
  C  C7  1  0.88740000  0.09045000  0.94313000  1.0
  C  C8  1  0.89601000  0.06015000  0.91988000  1.0
  C  C9  1  0.91246000  0.03052000  0.94222000  1.0
  C  C10  1  0.92834000  0.99489000  0.92834000  1.0
  C  C11  1  0.95326000  0.96672000  0.95046000  1.0
  C  C12  1  0.97714000  0.93356000  0.93618000  1.0
  C  C13  1  0.99956000  0.91437000  0.96577000  1.0
  C  C14  1  0.98726000  0.93578000  0.99754000  1.0
  C  C15  1  0.89160000  0.10118000  0.01110000  1.0
  C  C16  1  0.98200000  0.94455000  0.06612000  1.0
  C  C17  1  0.98746000  0.93123000  0.10207000  1.0
  C  C18  1  0.96256000  0.95775000  0.12541000  1.0
  C  C19  1  0.94336000  0.98682000  0.10317000  1.0
  C  C20  1  0.10874000  0.47355000  0.04568000  1.0
  C  C21  1  0.13758000  0.50869000  0.04791000  1.0
  C  C22  1  0.87308000  0.40947000  0.04194000  1.0
  C  C23  1  0.04048000  0.42982000  0.04312500  1.0
  C  C24  1  0.92778000  0.42847000  0.04306000  1.0
  C  C25  1  0.98472000  0.41078000  0.04199000  1.0
  C  C26  1  0.85680000  0.47058000  0.04563000  1.0
  C  C27  1  0.82834000  0.43601000  0.04356000  1.0
  C  C28  1  0.10658000  0.54314000  0.05031000  1.0
  C  C29  1  0.13502000  0.57771000  0.05231000  1.0
  C  C30  1  0.09030000  0.60425000  0.05397000  1.0
  C  C31  1  0.03558000  0.58525000  0.05290000  1.0
  C  C32  1  0.97864000  0.60296000  0.05376000  1.0
  C  C33  1  0.92286000  0.58390000  0.05280000  1.0
  C  C34  1  0.86698000  0.60162000  0.05355000  1.0
  C  C35  1  0.82400000  0.57408000  0.05187000  1.0
  C  C36  1  0.85462000  0.54018000  0.05011000  1.0
  C  C37  1  0.82580000  0.50504000  0.04781000  1.0
  C  C38  1  0.09638000  0.41212000  0.04182000  1.0
  C  C39  1  0.13936000  0.43966000  0.04348000  1.0
  C  C40  1  0.07576000  0.01375000  0.44500000  1.0
  C  C41  1  0.01962000  0.01327000  0.42643000  1.0
  C  C42  1  0.17324000  0.02038000  0.59163000  1.0
  C  C43  1  0.14488000  0.01538000  0.48805000  1.0
  C  C44  1  0.14410000  0.01836000  0.55742000  1.0
  C  C45  1  0.17442000  0.01681000  0.52285000  1.0
  C  C46  1  0.07400000  0.02054000  0.59993000  1.0
  C  C47  1  0.12912000  0.02175000  0.61840000  1.0
  C  C48  1  0.96304000  0.01381000  0.44452000  1.0
  C  C49  1  0.90799000  0.01275500  0.42601000  1.0
  C  C50  1  0.86380000  0.01360000  0.45280000  1.0
  C  C51  1  0.89292000  0.01524000  0.48706000  1.0
  C  C52  1  0.86258000  0.01650000  0.52166000  1.0
  C  C53  1  0.89212000  0.01806000  0.55648000  1.0
  C  C54  1  0.86224000  0.01966000  0.59051000  1.0
  C  C55  1  0.90579000  0.02104000  0.61763000  1.0
  C  C56  1  0.96128000  0.02043000  0.59954000  1.0
  C  C57  1  0.01744000  0.02146000  0.61806000  1.0
  C  C58  1  0.17480000  0.01389000  0.45405000  1.0
  C  C59  1  0.13130000  0.01301000  0.42693000  1.0
  C  C60  1  0.87942000  0.14165000  0.00604000  1.0
  C  C61  1  0.92776000  0.16627000  0.00068000  1.0
  C  C62  1  0.91718000  0.20460000  0.99623000  1.0
  C  C63  1  0.85744000  0.21835000  0.99630000  1.0
  C  C64  1  0.80904000  0.19337000  0.00059000  1.0
  C  C65  1  0.81996000  0.15529000  0.00588000  1.0
  C  C66  1  0.83476000  0.27466000  0.02333000  1.0
  C  C67  1  0.99266000  0.29098000  0.03350000  1.0
  C  C68  1  0.98654000  0.31239000  0.00132000  1.0
  C  C69  1  0.98330000  0.35137000  0.00413000  1.0
  C  C70  1  0.98624000  0.36929000  0.03916000  1.0
  C  C71  1  0.99220000  0.34790000  0.07138000  1.0
  C  C72  1  0.99546000  0.30889000  0.06854000  1.0
  C  C73  1  0.92168000  0.98725000  0.88771000  1.0
  C  C74  1  0.97104000  0.99189000  0.86371000  1.0
  C  C75  1  0.96548000  0.98354000  0.82556000  1.0
  C  C76  1  0.91002000  0.97022000  0.81127000  1.0
  C  C77  1  0.86100000  0.96515000  0.83555000  1.0
  C  C78  1  0.86658000  0.97397000  0.87347000  1.0
  C  C79  1  0.87583000  0.98761000  0.75436000  1.0
  C  C80  1  0.02078000  0.02666000  0.73766000  1.0
  C  C81  1  0.02761000  0.99223000  0.71874500  1.0
  C  C82  1  0.02568000  0.99050000  0.67985000  1.0
  C  C83  1  0.01720000  0.02323000  0.65947000  1.0
  C  C84  1  0.01016000  0.05768000  0.67836000  1.0
  C  C85  1  0.01194000  0.05936500  0.71731000  1.0
  C  C86  1  0.03368000  0.88861000  0.03897000  1.0
  C  C87  1  0.00520000  0.85436000  0.03088000  1.0
  C  C88  1  0.03720000  0.82063000  0.03356000  1.0
  C  C89  1  0.09842000  0.82110000  0.04438000  1.0
  C  C90  1  0.12655000  0.85540000  0.05280000  1.0
  C  C91  1  0.09432000  0.88892000  0.05037000  1.0
  C  C92  1  0.13508000  0.77277000  0.07824000  1.0
  C  C93  1  0.97040000  0.72295000  0.05654000  1.0
  C  C94  1  0.96762000  0.70303000  0.08986000  1.0
  C  C95  1  0.97100000  0.66394000  0.08906000  1.0
  C  C96  1  0.97708000  0.64451000  0.05494000  1.0
  C  C97  1  0.97998000  0.66445000  0.02167000  1.0
  C  C98  1  0.97660000  0.70348000  0.02249000  1.0
  C  C99  1  0.90750000  0.02419000  0.15798000  1.0
  C  C100  1  0.95578000  0.03325000  0.18176000  1.0
  C  C101  1  0.94599000  0.03861000  0.22008000  1.0
  C  C102  1  0.88712000  0.03547000  0.23473000  1.0
  C  C103  1  0.83874000  0.02709000  0.21068000  1.0
  C  C104  1  0.84894000  0.02110000  0.17260000  1.0
  C  C105  1  0.87011000  0.00989000  0.29141000  1.0
  C  C106  1  0.02666000  0.01233000  0.30686000  1.0
  C  C107  1  0.03134000  0.97869000  0.32622000  1.0
  C  C108  1  0.02810000  0.97885000  0.36515000  1.0
  C  C109  1  0.02038000  0.01270500  0.38500000  1.0
  C  C110  1  0.01546000  0.04631000  0.36561000  1.0
  C  C111  1  0.01864000  0.04611000  0.32673000  1.0
  C  C112  1  0.20498000  0.50935000  0.04773000  1.0
  C  C113  1  0.30038000  0.51056000  0.08060000  1.0
  C  C114  1  0.23716000  0.51097000  0.08135000  1.0
  C  C115  1  0.23688000  0.50752000  0.01399000  1.0
  C  C116  1  0.30012000  0.50718000  0.01450000  1.0
  C  C117  1  0.47940000  0.42291000  0.97022000  1.0
  C  C118  1  0.48016000  0.45383000  0.99868000  1.0
  C  C119  1  0.48016000  0.45886000  0.09937000  1.0
  C  C120  1  0.47922000  0.42995000  0.12886000  1.0
  C  C121  1  0.75842000  0.50437000  0.04769000  1.0
  C  C122  1  0.66334000  0.50293000  0.01447000  1.0
  C  C123  1  0.66298000  0.50640000  0.08057000  1.0
  C  C124  1  0.72656000  0.50265000  0.01395000  1.0
  C  C125  1  0.72618000  0.50619000  0.08131000  1.0
  C  C126  1  0.48406000  0.59052000  0.12453000  1.0
  C  C127  1  0.48328000  0.55957000  0.09610000  1.0
  C  C128  1  0.48328000  0.55441000  0.99529000  1.0
  C  C129  1  0.48426000  0.58320000  0.96570000  1.0
  C  C130  1  0.24182000  0.01681000  0.52309000  1.0
  C  C131  1  0.33708000  0.98449000  0.53042000  1.0
  C  C132  1  0.27386000  0.98392000  0.53058000  1.0
  C  C133  1  0.27392000  0.04965500  0.51562000  1.0
  C  C134  1  0.33714000  0.04896000  0.51564000  1.0
  C  C135  1  0.51764000  0.07233500  0.42523000  1.0
  C  C136  1  0.51786000  0.05182000  0.46108000  1.0
  C  C137  1  0.51798000  0.95426000  0.48633000  1.0
  C  C138  1  0.51764000  0.91850000  0.46426000  1.0
  C  C139  1  0.79516000  0.01638000  0.52143000  1.0
  C  C140  1  0.69978000  0.04860000  0.51419000  1.0
  C  C141  1  0.69994000  0.98411000  0.52888000  1.0
  C  C142  1  0.76300000  0.04924000  0.51401000  1.0
  C  C143  1  0.76316000  0.98349000  0.52888000  1.0
  C  C144  1  0.51926000  0.96064000  0.61934000  1.0
  C  C145  1  0.51906000  0.98117000  0.58350000  1.0
  C  C146  1  0.51892000  0.07874000  0.55825000  1.0
  C  C147  1  0.51922000  0.11450000  0.58031000  1.0
  Cu  Cu148  1  0.54296000  0.50591000  0.04738000  1.0
  Cu  Cu149  1  0.42046000  0.50748000  0.04741000  1.0
  Cu  Cu150  1  0.57970000  0.01643000  0.52200000  1.0
  Cu  Cu151  1  0.45724000  0.01657000  0.52258500  1.0
  H  H152  1  0.87428000  0.11816000  0.93443000  1.0
  H  H153  1  0.89180000  0.06026000  0.88980000  1.0
  H  H154  1  0.97942000  0.92428000  0.90733000  1.0
  H  H155  1  0.02192000  0.88745000  0.96377000  1.0
  H  H156  1  0.00646000  0.90482000  0.11071000  1.0
  H  H157  1  0.95966000  0.95582000  0.15545000  1.0
  H  H158  1  0.88104000  0.09436000  0.13788000  1.0
  H  H159  1  0.86922000  0.13842000  0.08076000  1.0
  H  H160  1  0.18310000  0.58343000  0.05244000  1.0
  H  H161  1  0.18776000  0.43504000  0.04312000  1.0
  H  H162  1  0.09754000  0.63421000  0.05571000  1.0
  H  H163  1  0.85776000  0.63138000  0.05501000  1.0
  H  H164  1  0.77560000  0.57871000  0.05177000  1.0
  H  H165  1  0.78026000  0.43030000  0.04330000  1.0
  H  H166  1  0.86582000  0.37951000  0.04019000  1.0
  H  H167  1  0.10558000  0.38238000  0.03985000  1.0
  H  H168  1  0.90016000  0.01135000  0.39622000  1.0
  H  H169  1  0.13994000  0.01194000  0.39722000  1.0
  H  H170  1  0.81564000  0.01294000  0.44744000  1.0
  H  H171  1  0.81394000  0.01989000  0.59552000  1.0
  H  H172  1  0.89724000  0.02235000  0.64735000  1.0
  H  H173  1  0.13708000  0.02362000  0.64815000  1.0
  H  H174  1  0.22142000  0.02105000  0.59696000  1.0
  H  H175  1  0.22310000  0.01349000  0.44906000  1.0
  H  H176  1  0.97376000  0.15576000  0.99998500  1.0
  H  H177  1  0.76292000  0.20353000  0.99986000  1.0
  H  H178  1  0.78218000  0.13640000  0.00950000  1.0
  H  H179  1  0.86972000  0.26922000  0.04485000  1.0
  H  H180  1  0.78916000  0.26738000  0.03414000  1.0
  H  H181  1  0.83519000  0.30521000  0.01824000  1.0
  H  H182  1  0.98450000  0.29903000  0.97403000  1.0
  H  H183  1  0.97892000  0.36761000  0.97904000  1.0
  H  H184  1  0.99472000  0.36146000  0.09859000  1.0
  H  H185  1  0.00034000  0.29274500  0.09364000  1.0
  H  H186  1  0.01418000  0.00130000  0.87471500  1.0
  H  H187  1  0.81862000  0.95411000  0.82500000  1.0
  H  H188  1  0.82834000  0.96985000  0.89185000  1.0
  H  H189  1  0.89646000  0.01567000  0.75908000  1.0
  H  H190  1  0.82681000  0.98848500  0.76133000  1.0
  H  H191  1  0.87982000  0.98102500  0.72411000  1.0
  H  H192  1  0.03463000  0.96667000  0.73394000  1.0
  H  H193  1  0.03134000  0.96374000  0.66558000  1.0
  H  H194  1  0.00376000  0.08317000  0.66291500  1.0
  H  H195  1  0.00672000  0.08616000  0.73154000  1.0
  H  H196  1  0.95858000  0.85391000  0.02155000  1.0
  H  H197  1  0.17392000  0.85609000  0.06043000  1.0
  H  H198  1  0.11704000  0.91518000  0.05647000  1.0
  H  H199  1  0.09162000  0.75911000  0.08522000  1.0
  H  H200  1  0.14848000  0.79337000  0.10043000  1.0
  H  H201  1  0.17014000  0.75054000  0.07778000  1.0
  H  H202  1  0.96256000  0.71762000  0.11638000  1.0
  H  H203  1  0.96843000  0.64880000  0.11493000  1.0
  H  H204  1  0.98438000  0.64975000  0.99513000  1.0
  H  H205  1  0.97852000  0.71844000  0.99651000  1.0
  H  H206  1  0.00090000  0.03672000  0.17048000  1.0
  H  H207  1  0.79312000  0.02548000  0.22153000  1.0
  H  H208  1  0.81108000  0.01477000  0.15441000  1.0
  H  H209  1  0.90719000  0.98963000  0.28530000  1.0
  H  H210  1  0.82556000  0.99670000  0.28537000  1.0
  H  H211  1  0.87180000  0.01639000  0.32175000  1.0
  H  H212  1  0.03770000  0.95238000  0.31129000  1.0
  H  H213  1  0.03222000  0.95273000  0.37984000  1.0
  H  H214  1  0.00976000  0.07265000  0.38063000  1.0
  H  H215  1  0.01514000  0.07236000  0.31223000  1.0
  H  H216  1  0.32540000  0.51165000  0.10649000  1.0
  H  H217  1  0.21356000  0.51229000  0.10782000  1.0
  H  H218  1  0.32496000  0.50561000  0.98853000  1.0
  H  H219  1  0.21308000  0.50614000  0.98762000  1.0
  H  H220  1  0.43248000  0.41646000  0.96115000  1.0
  H  H221  1  0.50718000  0.43097000  0.94585000  1.0
  H  H222  1  0.50032000  0.39756000  0.98223000  1.0
  H  H223  1  0.52042000  0.43231000  0.14642000  1.0
  H  H224  1  0.47766000  0.40167000  0.11559000  1.0
  H  H225  1  0.43882000  0.43387000  0.14693000  1.0
  H  H226  1  0.63854000  0.50177000  0.98849000  1.0
  H  H227  1  0.75042000  0.50132000  0.98757000  1.0
  H  H228  1  0.74974000  0.50763000  0.10776000  1.0
  H  H229  1  0.63792000  0.50796000  0.10646000  1.0
  H  H230  1  0.53074000  0.59594000  0.13466000  1.0
  H  H231  1  0.52466000  0.57921000  0.94765000  1.0
  H  H232  1  0.46558000  0.61629000  0.11195000  1.0
  H  H233  1  0.44306000  0.58078000  0.94814000  1.0
  H  H234  1  0.48582000  0.61153000  0.97886000  1.0
  H  H235  1  0.45424000  0.58320000  0.14823000  1.0
  H  H236  1  0.36198000  0.95918000  0.53620000  1.0
  H  H237  1  0.25014000  0.95816000  0.53644000  1.0
  H  H238  1  0.36208000  0.07421000  0.50975000  1.0
  H  H239  1  0.25026000  0.07545000  0.50973000  1.0
  H  H240  1  0.47144000  0.08235000  0.41842000  1.0
  H  H241  1  0.54946000  0.09632000  0.42706000  1.0
  H  H242  1  0.53384000  0.05329000  0.40256500  1.0
  H  H243  1  0.55872000  0.90185000  0.47057000  1.0
  H  H244  1  0.51690000  0.92477000  0.43407000  1.0
  H  H245  1  0.47708000  0.90174000  0.47134000  1.0
  H  H246  1  0.67480000  0.07389000  0.50845000  1.0
  H  H247  1  0.78662000  0.07505000  0.50819000  1.0
  H  H248  1  0.78690000  0.95772000  0.53473500  1.0
  H  H249  1  0.67506000  0.95882000  0.53475000  1.0
  H  H250  1  0.56572000  0.95153000  0.62670000  1.0
  H  H251  1  0.55984000  0.13123000  0.57329000  1.0
  H  H252  1  0.50126000  0.97928000  0.64181000  1.0
  H  H253  1  0.47820000  0.13118000  0.57392000  1.0
  H  H254  1  0.51980000  0.10824000  0.61050000  1.0
  H  H255  1  0.48878000  0.93601000  0.61706000  1.0
  N  N256  1  0.91330000  0.04170000  0.97842000  1.0
  N  N257  1  0.95950000  0.96797000  0.98798000  1.0
  N  N258  1  0.95480000  0.97849000  0.06691000  1.0
  N  N259  1  0.90890000  0.05233000  0.05729000  1.0
  N  N260  1  0.04586000  0.54797000  0.05074000  1.0
  N  N261  1  0.91498000  0.54641500  0.05070000  1.0
  N  N262  1  0.91750000  0.46575000  0.04536000  1.0
  N  N263  1  0.04840000  0.46730000  0.04546000  1.0
  N  N264  1  0.95352000  0.01524000  0.48176000  1.0
  N  N265  1  0.95260000  0.01857500  0.56224000  1.0
  N  N266  1  0.08348000  0.01855000  0.56272000  1.0
  N  N267  1  0.08440000  0.01518000  0.48230000  1.0
  N  N268  1  0.63286000  0.50488000  0.04746000  1.0
  N  N269  1  0.33054000  0.50860000  0.04750000  1.0
  N  N270  1  0.66958000  0.01636000  0.52161000  1.0
  N  N271  1  0.36738000  0.01669000  0.52296000  1.0
  O  O272  1  0.06222000  0.23025000  0.02988000  1.0
  O  O273  1  0.96498000  0.22794000  0.98884000  1.0
  O  O274  1  0.84626000  0.25563000  0.98924000  1.0
  O  O275  1  0.96562000  0.22500000  0.06288000  1.0
  O  O276  1  0.08426000  0.04391000  0.79856000  1.0
  O  O277  1  0.01592000  0.98481000  0.80317000  1.0
  O  O278  1  0.90531000  0.95916000  0.77427000  1.0
  O  O279  1  0.97488000  0.05475000  0.80103000  1.0
  O  O280  1  0.90146000  0.78360000  0.04991000  1.0
  O  O281  1  0.01046000  0.78772000  0.02199000  1.0
  O  O282  1  0.13272000  0.78874000  0.04259000  1.0
  O  O283  1  0.98562000  0.78737000  0.09435000  1.0
  O  O284  1  0.09622000  0.01540000  0.24642000  1.0
  O  O285  1  0.99302000  0.05045000  0.24239000  1.0
  O  O286  1  0.87618000  0.04368000  0.27192000  1.0
  O  O287  1  0.00536000  0.97639500  0.24225000  1.0
  O  O288  1  0.53456000  0.54196000  0.00866000  1.0
  O  O289  1  0.53454000  0.54559000  0.08378000  1.0
  O  O290  1  0.43122000  0.54332000  0.00872000  1.0
  O  O291  1  0.43122000  0.54693000  0.08379000  1.0
  O  O292  1  0.42890000  0.47134000  0.08605000  1.0
  O  O293  1  0.42888000  0.46782000  0.01098000  1.0
  O  O294  1  0.53222000  0.46999000  0.08598000  1.0
  O  O295  1  0.53222000  0.46648000  0.01098000  1.0
  O  O296  1  0.57046000  0.06280000  0.54924000  1.0
  O  O297  1  0.57058000  0.99005000  0.56782000  1.0
  O  O298  1  0.46714000  0.06290000  0.54976000  1.0
  O  O299  1  0.46724000  0.99019000  0.56833000  1.0
  O  O300  1  0.46644000  0.97019000  0.49535000  1.0
  O  O301  1  0.46634000  0.04293000  0.47676000  1.0
  O  O302  1  0.56976000  0.97009000  0.49482000  1.0
  O  O303  1  0.56970000  0.04281000  0.47625000  1.0
  Pd  Pd304  1  0.93408000  0.01010000  0.02265000  1.0
  Pt  Pt305  1  0.98168000  0.50686000  0.04807000  1.0
  Pt  Pt306  1  0.01850000  0.01688000  0.52225000  1.0
  S  S307  1  0.99692000  0.24191000  0.02984000  1.0
  S  S308  1  0.02373000  0.02883000  0.78667000  1.0
  S  S309  1  0.96578000  0.77208000  0.05691000  1.0
  S  S310  1  0.03106000  0.01243500  0.25788000  1.0
