# generated using pymatgen
data_CoH26C34S2(NO)4
_symmetry_space_group_name_H-M   'P 1'
_cell_length_a   18.80310000
_cell_length_b   22.95165000
_cell_length_c   39.48930000
_cell_angle_alpha   76.56000000
_cell_angle_beta   90.00600000
_cell_angle_gamma   90.00100000
_symmetry_Int_Tables_number   1
_chemical_formula_structural   CoH26C34S2(NO)4
_chemical_formula_sum   'Co8 H208 C272 S16 N32 O32'
_cell_volume   16575.37074493
_cell_formula_units_Z   8
loop_
 _symmetry_equiv_pos_site_id
 _symmetry_equiv_pos_as_xyz
  1  'x, y, z'
loop_
 _atom_site_type_symbol
 _atom_site_label
 _atom_site_symmetry_multiplicity
 _atom_site_fract_x
 _atom_site_fract_y
 _atom_site_fract_z
 _atom_site_occupancy
  C  C0  1  0.79968000  0.82885000  0.62060000  1.0
  C  C1  1  0.78646000  0.80886000  0.59032000  1.0
  C  C2  1  0.71918000  0.81760000  0.57444000  1.0
  C  C3  1  0.66594000  0.84344000  0.59081000  1.0
  C  C4  1  0.87934000  0.83115000  0.71566000  1.0
  C  C5  1  0.91660000  0.84300000  0.23654000  1.0
  C  C6  1  0.95992000  0.84509000  0.30287500  1.0
  C  C7  1  0.70474000  0.80218000  0.54049000  1.0
  C  C8  1  0.18666000  0.82311000  0.11432000  1.0
  C  C9  1  0.47028000  0.84906000  0.43878000  1.0
  C  C10  1  0.51740000  0.84191000  0.46687000  1.0
  C  C11  1  0.58940000  0.85513000  0.46027500  1.0
  C  C12  1  0.64360000  0.82273000  0.48449000  1.0
  C  C13  1  0.65710000  0.83700000  0.51639000  1.0
  C  C14  1  0.56020000  0.89403000  0.39993000  1.0
  C  C15  1  0.15336000  0.86715000  0.94789000  1.0
  C  C16  1  0.60946000  0.88660000  0.42701000  1.0
  C  C17  1  0.36250000  0.81882000  0.30857000  1.0
  C  C18  1  0.78626000  0.77302000  0.70045000  1.0
  C  C19  1  0.91836000  0.77944000  0.72975000  1.0
  C  C20  1  0.49606000  0.73224000  0.42582000  1.0
  C  C21  1  0.47900000  0.68872000  0.45599000  1.0
  C  C22  1  0.41018000  0.66456000  0.46004000  1.0
  C  C23  1  0.36274000  0.68041000  0.43220000  1.0
  C  C24  1  0.38126000  0.72455000  0.40318500  1.0
  C  C25  1  0.34290000  0.79164000  0.28148000  1.0
  C  C26  1  0.37504000  0.73750000  0.27883000  1.0
  C  C27  1  0.42376000  0.71105000  0.30426000  1.0
  C  C28  1  0.44285000  0.73990000  0.33005000  1.0
  C  C29  1  0.82342000  0.72015000  0.71460000  1.0
  C  C30  1  0.89163000  0.72316000  0.72814000  1.0
  C  C31  1  0.92579000  0.78905000  0.26116000  1.0
  C  C32  1  0.94824000  0.78930000  0.29480000  1.0
  C  C33  1  0.13221000  0.82896000  0.97902000  1.0
  C  C34  1  0.17802000  0.78421000  0.99611000  1.0
  C  C35  1  0.23991000  0.77356000  0.97910000  1.0
  C  C36  1  0.25970000  0.81316000  0.94800000  1.0
  C  C37  1  0.32721000  0.84444000  0.87125000  1.0
  C  C38  1  0.32256000  0.80381000  0.84988500  1.0
  C  C39  1  0.27766000  0.81632000  0.82104000  1.0
  C  C40  1  0.24842000  0.87383000  0.81116000  1.0
  C  C41  1  0.73822000  0.75269000  0.53193500  1.0
  C  C42  1  0.72564000  0.73834000  0.49978500  1.0
  C  C43  1  0.67844000  0.77387000  0.47617000  1.0
  C  C44  1  0.76086000  0.68572000  0.49120500  1.0
  C  C45  1  0.93838000  0.66954000  0.73619500  1.0
  C  C46  1  0.91568000  0.61457000  0.75745000  1.0
  C  C47  1  0.05202000  0.62394000  0.72736000  1.0
  C  C48  1  0.00642000  0.67352000  0.72128000  1.0
  C  C49  1  0.12428000  0.62897000  0.71203000  1.0
  C  C50  1  0.92056000  0.68117000  0.32479000  1.0
  C  C51  1  0.96582000  0.73173000  0.31994000  1.0
  C  C52  1  0.03110000  0.72637000  0.33763000  1.0
  C  C53  1  0.05226000  0.67182000  0.35948000  1.0
  C  C54  1  0.12184000  0.66710000  0.37770000  1.0
  C  C55  1  0.35850000  0.64836000  0.25244000  1.0
  C  C56  1  0.36469000  0.71097000  0.24828000  1.0
  C  C57  1  0.36852000  0.74793000  0.21459000  1.0
  C  C58  1  0.36858000  0.72329000  0.18523500  1.0
  C  C59  1  0.36518000  0.66079000  0.18995500  1.0
  C  C60  1  0.37120000  0.76297000  0.14975000  1.0
  C  C61  1  0.29618000  0.72721000  0.79422000  1.0
  C  C62  1  0.25054000  0.76682000  0.80626000  1.0
  C  C63  1  0.17730000  0.75503000  0.80864000  1.0
  C  C64  1  0.14933000  0.70341000  0.80063000  1.0
  C  C65  1  0.17999000  0.67771000  0.08493000  1.0
  C  C66  1  0.17563000  0.69845000  0.04870000  1.0
  C  C67  1  0.17086000  0.76009000  0.03398000  1.0
  C  C68  1  0.17066000  0.80059000  0.05580000  1.0
  C  C69  1  0.17625000  0.78021000  0.09199000  1.0
  C  C70  1  0.17920000  0.71854000  0.10640000  1.0
  C  C71  1  0.46526000  0.59317000  0.63675000  1.0
  C  C72  1  0.45206000  0.61471000  0.60134000  1.0
  C  C73  1  0.38208000  0.62585000  0.59006500  1.0
  C  C74  1  0.32988000  0.62911000  0.61493000  1.0
  C  C75  1  0.34619000  0.60945000  0.65035000  1.0
  C  C76  1  0.33476000  0.53694000  0.75823000  1.0
  C  C77  1  0.30094000  0.57319000  0.77725000  1.0
  C  C78  1  0.31440000  0.63499000  0.76978000  1.0
  C  C79  1  0.36696000  0.65757000  0.74508000  1.0
  C  C80  1  0.40058000  0.61955000  0.72695000  1.0
  C  C81  1  0.78220000  0.52489000  0.37653000  1.0
  C  C82  1  0.82218000  0.57686000  0.36348000  1.0
  C  C83  1  0.89308000  0.57235000  0.35390000  1.0
  C  C84  1  0.91960000  0.51501000  0.35461000  1.0
  C  C85  1  0.89472000  0.45365000  0.84477000  1.0
  C  C86  1  0.90576000  0.50728000  0.82007000  1.0
  C  C87  1  0.94116000  0.50696000  0.78896000  1.0
  C  C88  1  0.96252000  0.45142000  0.78319000  1.0
  C  C89  1  0.17376000  0.51020000  0.11986500  1.0
  C  C90  1  0.15338000  0.56768000  0.10179000  1.0
  C  C91  1  0.20003000  0.61548000  0.10040000  1.0
  C  C92  1  0.26666000  0.60462000  0.11583000  1.0
  C  C93  1  0.28487000  0.54719000  0.13350500  1.0
  C  C94  1  0.38802000  0.51605000  0.22200000  1.0
  C  C95  1  0.33876000  0.55991000  0.22597000  1.0
  C  C96  1  0.26694000  0.54809000  0.22308000  1.0
  C  C97  1  0.24614000  0.49921000  0.21035000  1.0
  C  C98  1  0.94408000  0.44963000  0.02358000  1.0
  C  C99  1  0.95888000  0.45461000  0.05754000  1.0
  C  C100  1  0.02180000  0.42941000  0.07353500  1.0
  C  C101  1  0.90834000  0.48553000  0.07631000  1.0
  C  C102  1  0.96127000  0.56425000  0.76422500  1.0
  C  C103  1  0.02912000  0.56969000  0.74885000  1.0
  C  C104  1  0.94090000  0.62589000  0.34678000  1.0
  C  C105  1  0.00700000  0.62197000  0.36377000  1.0
  C  C106  1  0.35910000  0.62310000  0.22332000  1.0
  C  C107  1  0.26852000  0.67595000  0.78476000  1.0
  C  C108  1  0.19506000  0.66434000  0.78866000  1.0
  C  C109  1  0.07262000  0.68954000  0.80588000  1.0
  C  C110  1  0.36228000  0.61501000  0.55577000  1.0
  C  C111  1  0.39678000  0.64467000  0.52504000  1.0
  C  C112  1  0.38420000  0.62738000  0.49361500  1.0
  C  C113  1  0.33976000  0.57812000  0.49370500  1.0
  C  C114  1  0.30543000  0.54780000  0.52421000  1.0
  C  C115  1  0.31598000  0.56732000  0.55494000  1.0
  C  C116  1  0.25927000  0.49547000  0.52396000  1.0
  C  C117  1  0.40746000  0.47158000  0.63657000  1.0
  C  C118  1  0.42924000  0.44793000  0.60923000  1.0
  C  C119  1  0.49362000  0.41770000  0.61111000  1.0
  C  C120  1  0.53456000  0.41031000  0.64145000  1.0
  C  C121  1  0.50996000  0.43428000  0.66905000  1.0
  C  C122  1  0.40504000  0.38489000  0.73229000  1.0
  C  C123  1  0.41350000  0.33176000  0.75763000  1.0
  C  C124  1  0.44194000  0.33302000  0.79017000  1.0
  C  C125  1  0.46025000  0.38907000  0.79630000  1.0
  C  C126  1  0.45200000  0.44125000  0.77001000  1.0
  C  C127  1  0.74706000  0.40984000  0.47989000  1.0
  C  C128  1  0.70148000  0.41025000  0.50776000  1.0
  C  C129  1  0.63540000  0.43746000  0.50147000  1.0
  C  C130  1  0.62200000  0.47280000  0.46837000  1.0
  C  C131  1  0.66932000  0.47205000  0.44116000  1.0
  C  C132  1  0.64384000  0.32490000  0.44452500  1.0
  C  C133  1  0.60818000  0.27934000  0.46769000  1.0
  C  C134  1  0.75126000  0.27196000  0.45525000  1.0
  C  C135  1  0.82590000  0.29448000  0.38295500  1.0
  C  C136  1  0.77684000  0.26436000  0.33322000  1.0
  C  C137  1  0.75870000  0.32440000  0.31953000  1.0
  C  C138  1  0.77114000  0.36694000  0.33927000  1.0
  C  C139  1  0.87746000  0.46423000  0.36736000  1.0
  C  C140  1  0.88434000  0.35995000  0.94153000  1.0
  C  C141  1  0.90396000  0.37807000  0.97133000  1.0
  C  C142  1  0.96850000  0.40748000  0.97232000  1.0
  C  C143  1  0.00994000  0.42194000  0.94210000  1.0
  C  C144  1  0.98742000  0.40413000  0.91217500  1.0
  C  C145  1  0.83384000  0.29398000  0.81739000  1.0
  C  C146  1  0.95099000  0.39875000  0.80868000  1.0
  C  C147  1  0.24830000  0.41754000  0.09093000  1.0
  C  C148  1  0.19850000  0.41598000  0.06493000  1.0
  C  C149  1  0.13828000  0.38002000  0.07328000  1.0
  C  C150  1  0.13732000  0.33719000  0.10496500  1.0
  C  C151  1  0.18923000  0.33939000  0.12999000  1.0
  C  C152  1  0.36428000  0.46498000  0.21117000  1.0
  C  C153  1  0.32820000  0.30040000  0.17512000  1.0
  C  C154  1  0.29392000  0.26640000  0.24489000  1.0
  C  C155  1  0.28454000  0.32551000  0.22599000  1.0
  C  C156  1  0.57556000  0.41362000  0.52486000  1.0
  C  C157  1  0.57090000  0.42146000  0.55902000  1.0
  C  C158  1  0.51446000  0.39504000  0.58057000  1.0
  C  C159  1  0.46656000  0.35720000  0.56875000  1.0
  C  C160  1  0.47066000  0.34912000  0.53477500  1.0
  C  C161  1  0.52420000  0.37894000  0.51276000  1.0
  C  C162  1  0.41752000  0.31136000  0.52210500  1.0
  C  C163  1  0.07058000  0.40107000  0.05571000  1.0
  C  C164  1  0.05596000  0.39749000  0.02140000  1.0
  C  C165  1  0.99154000  0.42046000  0.00556000  1.0
  C  C166  1  0.45616000  0.27620000  0.81669500  1.0
  C  C167  1  0.51718000  0.27158000  0.83777500  1.0
  C  C168  1  0.68176000  0.86432000  0.62020000  1.0
  C  C169  1  0.94904000  0.89848000  0.27752000  1.0
  C  C170  1  0.94192000  0.23942000  0.94079000  1.0
  C  C171  1  0.80218000  0.25085000  0.80225000  1.0
  C  C172  1  0.81658000  0.25078000  0.36384500  1.0
  C  C173  1  0.91756000  0.22278000  0.84606500  1.0
  C  C174  1  0.64454000  0.22874000  0.48586000  1.0
  C  C175  1  0.71710000  0.22504000  0.47861000  1.0
  C  C176  1  0.92722000  0.19414000  0.97021000  1.0
  C  C177  1  0.86372000  0.16167000  0.97209000  1.0
  C  C178  1  0.81894000  0.17315000  0.94293000  1.0
  C  C179  1  0.83592000  0.21816000  0.91390000  1.0
  C  C180  1  0.82828000  0.19211000  0.81019000  1.0
  C  C181  1  0.88932000  0.17938000  0.83050000  1.0
  C  C182  1  0.33922000  0.24101000  0.19326000  1.0
  C  C183  1  0.31954000  0.22302000  0.22822000  1.0
  C  C184  1  0.31046000  0.15859000  0.24476000  1.0
  C  C185  1  0.41078000  0.22594000  0.82054000  1.0
  C  C186  1  0.42678000  0.17213000  0.84475000  1.0
  C  C187  1  0.48688000  0.16955000  0.86610000  1.0
  C  C188  1  0.53228000  0.21896000  0.86289500  1.0
  C  C189  1  0.59496000  0.21576000  0.88605500  1.0
  C  C190  1  0.78412000  0.14166000  0.80516000  1.0
  C  C191  1  0.78792000  0.17185000  0.30897000  1.0
  C  C192  1  0.74556000  0.21556000  0.31898000  1.0
  C  C193  1  0.67126000  0.21080000  0.31774500  1.0
  C  C194  1  0.63890000  0.16298000  0.30706000  1.0
  C  C195  1  0.56032000  0.15829000  0.30623000  1.0
  C  C196  1  0.64584000  0.14982000  0.54244500  1.0
  C  C197  1  0.60778000  0.18320000  0.51374000  1.0
  C  C198  1  0.53378000  0.17391000  0.51242000  1.0
  C  C199  1  0.63610000  0.05059000  0.63050000  1.0
  C  C200  1  0.65394000  0.06519000  0.59507500  1.0
  C  C201  1  0.94716000  0.06493000  0.14601000  1.0
  C  C202  1  0.92820000  0.09070000  0.11156000  1.0
  C  C203  1  0.85608000  0.09586000  0.10277000  1.0
  C  C204  1  0.80614000  0.08927000  0.12964000  1.0
  C  C205  1  0.82781000  0.06492000  0.16374500  1.0
  C  C206  1  0.79960000  0.08348000  0.28098500  1.0
  C  C207  1  0.85334000  0.10759000  0.25764500  1.0
  C  C208  1  0.88642000  0.07244000  0.23803000  1.0
  C  C209  1  0.27060000  0.06711000  0.86899000  1.0
  C  C210  1  0.30860000  0.12054000  0.85724000  1.0
  C  C211  1  0.38068000  0.11827000  0.84926000  1.0
  C  C212  1  0.41012000  0.06251000  0.84893000  1.0
  C  C213  1  0.17772000  0.07430000  0.04340500  1.0
  C  C214  1  0.36842000  0.11976000  0.25579000  1.0
  C  C215  1  0.35595000  0.05886000  0.27149000  1.0
  C  C216  1  0.22794000  0.07590000  0.26546000  1.0
  C  C217  1  0.24084000  0.13628000  0.24983000  1.0
  C  C218  1  0.15428000  0.05355000  0.27295000  1.0
  C  C219  1  0.80460000  0.10594000  0.78233000  1.0
  C  C220  1  0.76638000  0.05341000  0.78153000  1.0
  C  C221  1  0.68889000  0.07128000  0.82782000  1.0
  C  C222  1  0.72644000  0.12408000  0.82774000  1.0
  C  C223  1  0.63179000  0.04994000  0.85361000  1.0
  C  C224  1  0.75626000  0.12434000  0.29708000  1.0
  C  C225  1  0.68180000  0.12005000  0.29679000  1.0
  C  C226  1  0.61150000  0.10772000  0.56889500  1.0
  C  C227  1  0.49815000  0.13416000  0.53953000  1.0
  C  C228  1  0.53756000  0.10120000  0.56772000  1.0
  C  C229  1  0.42004000  0.12612000  0.53785500  1.0
  C  C230  1  0.83346000  0.08982000  0.06791000  1.0
  C  C231  1  0.85811000  0.12891000  0.03750000  1.0
  C  C232  1  0.84222000  0.11821000  0.00459000  1.0
  C  C233  1  0.80304000  0.06680000  0.00277000  1.0
  C  C234  1  0.16134000  0.08591000  0.07584000  1.0
  C  C235  1  0.18545000  0.14224000  0.08457000  1.0
  C  C236  1  0.41818000  0.01490000  0.32595000  1.0
  C  C237  1  0.41168000  0.01850000  0.29038000  1.0
  C  C238  1  0.67322000  0.00492000  0.65346000  1.0
  C  C239  1  0.70976000  0.03461000  0.58375000  1.0
  C  C240  1  0.80708000  0.00503000  0.69830500  1.0
  C  C241  1  0.80404000  0.04083000  0.72248000  1.0
  C  C242  1  0.78492000  0.01530000  0.75698500  1.0
  C  C243  1  0.78292000  0.02240000  0.28508500  1.0
  C  C244  1  0.18238000  0.00637000  0.00313000  1.0
  C  C245  1  0.15838000  0.03588000  0.97026000  1.0
  C  C246  1  0.36998000  0.01038000  0.86047500  1.0
  C  C247  1  0.15528000  0.02114000  0.03511000  1.0
  C  C248  1  0.28582000  0.03744000  0.27557000  1.0
  C  C249  1  0.70813000  0.03721000  0.80412000  1.0
  C  C250  1  0.77771000  0.02752000  0.03298000  1.0
  C  C251  1  0.79288000  0.03961000  0.06541000  1.0
  C  C252  1  0.18440000  0.01917000  0.94061000  1.0
  C  C253  1  0.12225000  0.04328000  0.09993000  1.0
  C  C254  1  0.44102000  0.96176000  0.34798000  1.0
  C  C255  1  0.43954000  0.97162000  0.27712000  1.0
  C  C256  1  0.74432000  0.98897000  0.60711000  1.0
  C  C257  1  0.77624000  0.95292000  0.76689000  1.0
  C  C258  1  0.81832000  0.98805000  0.26505000  1.0
  C  C259  1  0.25938000  0.94776000  0.97557000  1.0
  C  C260  1  0.23402000  0.96257000  0.00556000  1.0
  C  C261  1  0.11324000  0.97996000  0.05885000  1.0
  C  C262  1  0.73622000  0.97364000  0.03057000  1.0
  C  C263  1  0.97671000  0.95176000  0.11132000  1.0
  C  C264  1  0.05020000  0.95054000  0.11692000  1.0
  C  C265  1  0.09686000  0.99080000  0.09151000  1.0
  C  C266  1  0.46548000  0.91972000  0.30020000  1.0
  C  C267  1  0.25606000  0.91353000  0.83303000  1.0
  C  C268  1  0.02720000  0.91429000  0.17838000  1.0
  C  C269  1  0.07517000  0.92582000  0.15060000  1.0
  C  C270  1  0.77828000  0.91901000  0.74186500  1.0
  C  C271  1  0.93096000  0.94217000  0.14012000  1.0
  Co  Co272  1  0.45352000  0.83260000  0.36798000  1.0
  Co  Co273  1  0.41630000  0.51195000  0.70017000  1.0
  Co  Co274  1  0.76318000  0.39492000  0.40853000  1.0
  Co  Co275  1  0.90712000  0.32616000  0.87625000  1.0
  Co  Co276  1  0.26776000  0.42060000  0.16339000  1.0
  Co  Co277  1  0.77032000  0.90123000  0.67132000  1.0
  Co  Co278  1  0.91244000  0.97142000  0.20792000  1.0
  Co  Co279  1  0.26144000  0.93710000  0.90339000  1.0
  H  H280  1  0.33768000  0.86062000  0.30994000  1.0
  H  H281  1  0.85182000  0.82168000  0.63214000  1.0
  H  H282  1  0.97054000  0.78366000  0.74050000  1.0
  H  H283  1  0.80646000  0.89072000  0.17896000  1.0
  H  H284  1  0.90160000  0.84040000  0.21062000  1.0
  H  H285  1  0.97764000  0.84749000  0.32858000  1.0
  H  H286  1  0.11988000  0.90557000  0.93932000  1.0
  H  H287  1  0.16999000  0.84826000  0.04438000  1.0
  H  H288  1  0.41802000  0.82967000  0.44398000  1.0
  H  H289  1  0.49980000  0.81842000  0.49251500  1.0
  H  H290  1  0.34048000  0.89778000  0.40255000  1.0
  H  H291  1  0.48326000  0.88283000  0.28966000  1.0
  H  H292  1  0.04836000  0.90024000  0.20443000  1.0
  H  H293  1  0.61246000  0.84942000  0.58050000  1.0
  H  H294  1  0.21645000  0.88674000  0.78782000  1.0
  H  H295  1  0.82956000  0.78877000  0.57892000  1.0
  H  H296  1  0.73572000  0.76928000  0.68819000  1.0
  H  H297  1  0.37117000  0.84974000  0.12251000  1.0
  H  H298  1  0.54778000  0.75301000  0.42419000  1.0
  H  H299  1  0.51806000  0.67626000  0.47652500  1.0
  H  H300  1  0.30939000  0.66228000  0.43377000  1.0
  H  H301  1  0.34152000  0.73800000  0.38322000  1.0
  H  H302  1  0.30394000  0.81322000  0.26251000  1.0
  H  H303  1  0.44984000  0.66934000  0.30345000  1.0
  H  H304  1  0.48112000  0.71742000  0.34889000  1.0
  H  H305  1  0.58862000  0.75477000  0.36698000  1.0
  H  H306  1  0.37924000  0.70491000  0.73824500  1.0
  H  H307  1  0.80085000  0.67759000  0.71281000  1.0
  H  H308  1  0.91788000  0.74728000  0.25340000  1.0
  H  H309  1  0.08382000  0.83870000  0.99152000  1.0
  H  H310  1  0.27708000  0.73933000  0.99171000  1.0
  H  H311  1  0.31191000  0.80671000  0.93923000  1.0
  H  H312  1  0.36375000  0.83313000  0.89246000  1.0
  H  H313  1  0.34964000  0.76114000  0.85745000  1.0
  H  H314  1  0.77330000  0.72464000  0.55056000  1.0
  H  H315  1  0.66730000  0.76282000  0.45148000  1.0
  H  H316  1  0.81394000  0.52964000  0.07252000  1.0
  H  H317  1  0.21664000  0.58454000  0.71034000  1.0
  H  H318  1  0.86312000  0.61131000  0.76892000  1.0
  H  H319  1  0.02366000  0.71549000  0.70455000  1.0
  H  H320  1  0.21032000  0.71327000  0.38526000  1.0
  H  H321  1  0.86996000  0.68475000  0.31140000  1.0
  H  H322  1  0.06646000  0.76462000  0.33359000  1.0
  H  H323  1  0.37376000  0.79590000  0.21132000  1.0
  H  H324  1  0.97583000  0.72466000  0.81233500  1.0
  H  H325  1  0.35280000  0.73590000  0.79270500  1.0
  H  H326  1  0.14246000  0.78456000  0.81876500  1.0
  H  H327  1  0.43184000  0.68192000  0.52551000  1.0
  H  H328  1  0.18002000  0.66719000  0.03205000  1.0
  H  H329  1  0.18601000  0.70218000  0.13426000  1.0
  H  H330  1  0.63085000  0.87564000  0.52201000  1.0
  H  H331  1  0.51716000  0.57425000  0.64328000  1.0
  H  H332  1  0.49422000  0.61263000  0.58298000  1.0
  H  H333  1  0.27538000  0.63991000  0.60712500  1.0
  H  H334  1  0.30404000  0.60755000  0.66899000  1.0
  H  H335  1  0.26210000  0.55310000  0.79668000  1.0
  H  H336  1  0.43806000  0.63920000  0.70691000  1.0
  H  H337  1  0.54634000  0.59511000  0.69988000  1.0
  H  H338  1  0.57111000  0.49498000  0.46253000  1.0
  H  H339  1  0.64940000  0.49418000  0.41618000  1.0
  H  H340  1  0.72862000  0.53145000  0.38313000  1.0
  H  H341  1  0.79854000  0.62019000  0.36256000  1.0
  H  H342  1  0.97354000  0.50920000  0.34639000  1.0
  H  H343  1  0.05954000  0.44599000  0.94176000  1.0
  H  H344  1  0.86896000  0.45602000  0.86878000  1.0
  H  H345  1  0.88914000  0.54890000  0.82605000  1.0
  H  H346  1  0.98913000  0.44860000  0.75933000  1.0
  H  H347  1  0.13734000  0.47375000  0.12060500  1.0
  H  H348  1  0.10139000  0.57484000  0.08978000  1.0
  H  H349  1  0.30409000  0.64078000  0.11471000  1.0
  H  H350  1  0.33581000  0.54146000  0.14624000  1.0
  H  H351  1  0.44440000  0.52328000  0.22461000  1.0
  H  H352  1  0.22738000  0.58106000  0.22576000  1.0
  H  H353  1  0.19153000  0.49997000  0.20263000  1.0
  H  H354  1  0.82908000  0.61681000  0.50914500  1.0
  H  H355  1  0.89478000  0.46743000  0.01117000  1.0
  H  H356  1  0.03364000  0.43260000  0.09988000  1.0
  H  H357  1  0.06528000  0.53199000  0.75457000  1.0
  H  H358  1  0.02258000  0.58002000  0.38106000  1.0
  H  H359  1  0.35256000  0.61946000  0.27819000  1.0
  H  H360  1  0.36424000  0.64121000  0.16756500  1.0
  H  H361  1  0.17284000  0.62524000  0.78172500  1.0
  H  H362  1  0.33128000  0.56392000  0.46971000  1.0
  H  H363  1  0.29067000  0.54346000  0.57878000  1.0
  H  H364  1  0.35976000  0.49795000  0.63245500  1.0
  H  H365  1  0.39648000  0.45495000  0.58606000  1.0
  H  H366  1  0.58446000  0.38626000  0.64384000  1.0
  H  H367  1  0.54154000  0.42768000  0.69244000  1.0
  H  H368  1  0.31946000  0.49042000  0.76329000  1.0
  H  H369  1  0.28986000  0.43682000  0.68042000  1.0
  H  H370  1  0.38454000  0.38150000  0.70736000  1.0
  H  H371  1  0.39988000  0.28985000  0.75118000  1.0
  H  H372  1  0.48127000  0.39287000  0.82119000  1.0
  H  H373  1  0.46774000  0.48340000  0.77541000  1.0
  H  H374  1  0.79046000  0.37937000  0.48675000  1.0
  H  H375  1  0.71376000  0.38212000  0.53313000  1.0
  H  H376  1  0.61310000  0.36457000  0.43491000  1.0
  H  H377  1  0.55274000  0.28593000  0.47254000  1.0
  H  H378  1  0.80766000  0.26795000  0.45406500  1.0
  H  H379  1  0.85702000  0.28201000  0.40612000  1.0
  H  H380  1  0.73158000  0.33771000  0.29476000  1.0
  H  H381  1  0.75586000  0.41274000  0.32826000  1.0
  H  H382  1  0.89676000  0.42357000  0.44507500  1.0
  H  H383  1  0.90066000  0.42097000  0.36808000  1.0
  H  H384  1  0.63074000  0.37088000  0.36861500  1.0
  H  H385  1  0.83747000  0.33244000  0.94330000  1.0
  H  H386  1  0.87055000  0.36591000  0.99422000  1.0
  H  H387  1  0.02028000  0.41549000  0.88919000  1.0
  H  H388  1  0.98882000  0.26628000  0.94125500  1.0
  H  H389  1  0.81127000  0.33842000  0.81191000  1.0
  H  H390  1  0.75494000  0.26224000  0.78644000  1.0
  H  H391  1  0.77354000  0.39541000  0.89257500  1.0
  H  H392  1  0.96964000  0.35701000  0.80378000  1.0
  H  H393  1  0.04850000  0.25252000  0.89034000  1.0
  H  H394  1  0.28732000  0.45287000  0.08524000  1.0
  H  H395  1  0.20144000  0.44926000  0.04054000  1.0
  H  H396  1  0.09226000  0.30748000  0.11197000  1.0
  H  H397  1  0.18336000  0.30998000  0.15548000  1.0
  H  H398  1  0.40328000  0.43290000  0.20702000  1.0
  H  H399  1  0.39246000  0.40083000  0.11591000  1.0
  H  H400  1  0.33978000  0.31192000  0.14765000  1.0
  H  H401  1  0.26202000  0.35739000  0.23919000  1.0
  H  H402  1  0.10762000  0.44711000  0.17934000  1.0
  H  H403  1  0.33264000  0.25630000  0.53631500  1.0
  H  H404  1  0.60810000  0.45069000  0.56792000  1.0
  H  H405  1  0.42312000  0.33723000  0.58550500  1.0
  H  H406  1  0.52668000  0.37481000  0.48608500  1.0
  H  H407  1  0.09292000  0.37491000  0.00774000  1.0
  H  H408  1  0.55344000  0.30908000  0.83459500  1.0
  H  H409  1  0.22048000  0.44240000  0.49363000  1.0
  H  H410  1  0.92857000  0.88784000  0.65075000  1.0
  H  H411  1  0.90256000  0.87391000  0.71623500  1.0
  H  H412  1  0.66432000  0.89946000  0.42126000  1.0
  H  H413  1  0.76641000  0.87181000  0.74998000  1.0
  H  H414  1  0.27746000  0.25393000  0.27187000  1.0
  H  H415  1  0.64055000  0.88874000  0.62986000  1.0
  H  H416  1  0.63866000  0.24391000  0.32597000  1.0
  H  H417  1  0.79950000  0.22629000  0.89220000  1.0
  H  H418  1  0.95850000  0.20824000  0.86517000  1.0
  H  H419  1  0.74860000  0.18692000  0.49149500  1.0
  H  H420  1  0.83570000  0.20572000  0.37435500  1.0
  H  H421  1  0.96456000  0.18594000  0.99164000  1.0
  H  H422  1  0.76932000  0.14943000  0.94287000  1.0
  H  H423  1  0.86702000  0.15461000  0.25279000  1.0
  H  H424  1  0.35811000  0.20855000  0.17937500  1.0
  H  H425  1  0.28254000  0.16303000  0.85600000  1.0
  H  H426  1  0.19652000  0.16649000  0.24171000  1.0
  H  H427  1  0.64224000  0.16700000  0.92977500  1.0
  H  H428  1  0.36334000  0.22837000  0.80476000  1.0
  H  H429  1  0.71278000  0.15051000  0.84626000  1.0
  H  H430  1  0.46770000  0.19881000  0.31400000  1.0
  H  H431  1  0.84526000  0.17547000  0.30985500  1.0
  H  H432  1  0.33184000  0.15170000  0.50842000  1.0
  H  H433  1  0.70252000  0.15602000  0.54456000  1.0
  H  H434  1  0.50352000  0.19714000  0.49009000  1.0
  H  H435  1  0.88846000  0.16794000  0.03967000  1.0
  H  H436  1  0.23833000  0.22040000  0.06624000  1.0
  H  H437  1  0.64176000  0.90249000  0.72067000  1.0
  H  H438  1  0.39709000  0.05004000  0.33723000  1.0
  H  H439  1  0.59334000  0.07368000  0.64026000  1.0
  H  H440  1  0.81204000  0.08863000  0.71359000  1.0
  H  H441  1  0.91034000  0.13424000  0.83751000  1.0
  H  H442  1  0.00166000  0.05180000  0.15097500  1.0
  H  H443  1  0.96868000  0.09701000  0.09154000  1.0
  H  H444  1  0.75000000  0.09574000  0.12393500  1.0
  H  H445  1  0.78756000  0.05501000  0.18374500  1.0
  H  H446  1  0.92394000  0.09468000  0.21876000  1.0
  H  H447  1  0.03520000  0.06499000  0.20519000  1.0
  H  H448  1  0.11724000  0.06965000  0.96758000  1.0
  H  H449  1  0.21524000  0.07133000  0.87343000  1.0
  H  H450  1  0.46469000  0.05909000  0.84098500  1.0
  H  H451  1  0.20986000  0.10566000  0.02488000  1.0
  H  H452  1  0.42212000  0.13714000  0.25318000  1.0
  H  H453  1  0.49766000  0.12883000  0.88558000  1.0
  H  H454  1  0.85082000  0.11841000  0.76590000  1.0
  H  H455  1  0.65704000  0.08444000  0.28718500  1.0
  H  H456  1  0.51124000  0.06839000  0.58800500  1.0
  H  H457  1  0.79258000  0.05704000  0.97771500  1.0
  H  H458  1  0.11044000  0.05142000  0.12523000  1.0
  H  H459  1  0.65888000  0.99475000  0.68062000  1.0
  H  H460  1  0.72422000  0.04352000  0.55648500  1.0
  H  H461  1  0.81818000  0.02663000  0.67152500  1.0
  H  H462  1  0.74176000  0.00165000  0.30302000  1.0
  H  H463  1  0.67758000  0.99758000  0.80336000  1.0
  H  H464  1  0.77523000  0.00865000  0.08898000  1.0
  H  H465  1  0.15696000  0.03861000  0.91708000  1.0
  H  H466  1  0.43670000  0.95882000  0.37551000  1.0
  H  H467  1  0.43544000  0.97274000  0.24965000  1.0
  H  H468  1  0.78324000  0.96375000  0.59648000  1.0
  H  H469  1  0.39988000  0.96607000  0.93641000  1.0
  H  H470  1  0.39496000  0.96818000  0.86025000  1.0
  H  H471  1  0.09486000  0.97972000  0.29330000  1.0
  H  H472  1  0.27652000  0.99102000  0.28860000  1.0
  H  H473  1  0.55757000  0.98498000  0.86953500  1.0
  H  H474  1  0.87598000  0.95437000  0.13504000  1.0
  H  H475  1  0.95515000  0.96956000  0.08556000  1.0
  H  H476  1  0.23374000  0.95774000  0.82442000  1.0
  H  H477  1  0.12086000  0.91037000  0.87144000  1.0
  H  H478  1  0.29264000  0.90878000  0.98020500  1.0
  H  H479  1  0.57837000  0.91395000  0.37388000  1.0
  H  H480  1  0.22065000  0.90712000  0.11441000  1.0
  H  H481  1  0.13158000  0.92236000  0.15603000  1.0
  H  H482  1  0.76435000  0.93063000  0.79356000  1.0
  H  H483  1  0.80381000  0.94159000  0.26820500  1.0
  H  H484  1  0.95824000  0.94064000  0.28447000  1.0
  H  H485  1  0.25338000  0.93836000  0.03073000  1.0
  H  H486  1  0.09498000  0.93920000  0.05229000  1.0
  H  H487  1  0.69508000  0.92743000  0.99704000  1.0
  N  N488  1  0.49526000  0.86637000  0.40533000  1.0
  N  N489  1  0.81544000  0.82815000  0.69952000  1.0
  N  N490  1  0.28550000  0.89496000  0.86559000  1.0
  N  N491  1  0.21942000  0.86270000  0.93354000  1.0
  N  N492  1  0.74859000  0.85881000  0.63448000  1.0
  N  N493  1  0.44495000  0.75404000  0.40142000  1.0
  N  N494  1  0.41514000  0.79460000  0.33156000  1.0
  N  N495  1  0.41032000  0.58283000  0.66036500  1.0
  N  N496  1  0.38268000  0.56018000  0.73251000  1.0
  N  N497  1  0.23874000  0.50022000  0.13597500  1.0
  N  N498  1  0.44756000  0.46613000  0.66612000  1.0
  N  N499  1  0.42440000  0.43924000  0.73823000  1.0
  N  N500  1  0.72868000  0.43562000  0.44579000  1.0
  N  N501  1  0.71512000  0.32178000  0.43734500  1.0
  N  N502  1  0.79342000  0.34944000  0.37322000  1.0
  N  N503  1  0.81092000  0.46868000  0.38089500  1.0
  N  N504  1  0.92702000  0.37041000  0.91260000  1.0
  N  N505  1  0.89514000  0.25296000  0.91346000  1.0
  N  N506  1  0.88696000  0.27836000  0.84156500  1.0
  N  N507  1  0.91828000  0.39996000  0.83945000  1.0
  N  N508  1  0.23744000  0.38536000  0.12444000  1.0
  N  N509  1  0.29489000  0.46079000  0.20122500  1.0
  N  N510  1  0.29808000  0.34156000  0.19100000  1.0
  N  N511  1  0.92754000  0.89739000  0.24455000  1.0
  N  N512  1  0.89574000  0.04388000  0.17033000  1.0
  N  N513  1  0.86874000  0.01342000  0.24113000  1.0
  N  N514  1  0.30328000  0.01226000  0.87433000  1.0
  N  N515  1  0.72566000  0.97320000  0.64161000  1.0
  N  N516  1  0.23602000  0.97583000  0.94265000  1.0
  N  N517  1  0.45806000  0.91256000  0.33544000  1.0
  N  N518  1  0.78956000  0.94545000  0.70752000  1.0
  N  N519  1  0.95823000  0.93326000  0.17318000  1.0
  O  O520  1  0.20990000  0.87914000  0.10020000  1.0
  O  O521  1  0.17696000  0.80746000  0.14576000  1.0
  O  O522  1  0.80570000  0.65138000  0.51421500  1.0
  O  O523  1  0.74952000  0.67299000  0.46327500  1.0
  O  O524  1  0.14454000  0.67616000  0.69317000  1.0
  O  O525  1  0.16486000  0.71538000  0.37354000  1.0
  O  O526  1  0.37010000  0.82309000  0.14544000  1.0
  O  O527  1  0.37390000  0.74160000  0.12414000  1.0
  O  O528  1  0.02616000  0.73286000  0.80897000  1.0
  O  O529  1  0.16864000  0.58154000  0.71920000  1.0
  O  O530  1  0.84760000  0.50927000  0.06072500  1.0
  O  O531  1  0.92132000  0.48984000  0.10599500  1.0
  O  O532  1  0.14074000  0.61953000  0.39661000  1.0
  O  O533  1  0.05106000  0.63857000  0.80797000  1.0
  O  O534  1  0.36804000  0.28092000  0.54407500  1.0
  O  O535  1  0.41792000  0.30763000  0.49170000  1.0
  O  O536  1  0.25020000  0.47655000  0.49431000  1.0
  O  O537  1  0.22930000  0.46894000  0.55060000  1.0
  O  O538  1  0.64028000  0.25508000  0.88007500  1.0
  O  O539  1  0.60209000  0.16967000  0.91416500  1.0
  O  O540  1  0.51908000  0.20110000  0.31454000  1.0
  O  O541  1  0.38284000  0.15618000  0.50997000  1.0
  O  O542  1  0.22246000  0.18326000  0.06109000  1.0
  O  O543  1  0.17171000  0.15210000  0.11301000  1.0
  O  O544  1  0.10386000  0.08806000  0.26645000  1.0
  O  O545  1  0.61967000  0.07616000  0.87660000  1.0
  O  O546  1  0.53226000  0.11555000  0.29798000  1.0
  O  O547  1  0.38870000  0.09232000  0.56172000  1.0
  O  O548  1  0.14240000  0.99507000  0.28761000  1.0
  O  O549  1  0.59400000  0.00036000  0.85247000  1.0
  O  O550  1  0.72207000  0.96232000  0.99918000  1.0
  O  O551  1  0.71449000  0.93910000  0.05696000  1.0
  S  S552  1  0.34172000  0.85652000  0.38248000  1.0
  S  S553  1  0.56506000  0.81114000  0.35161000  1.0
  S  S554  1  0.53050000  0.53546000  0.71070000  1.0
  S  S555  1  0.30012000  0.48671000  0.69324000  1.0
  S  S556  1  0.86938000  0.37324000  0.43690500  1.0
  S  S557  1  0.66138000  0.42036000  0.37640000  1.0
  S  S558  1  0.78860000  0.34745000  0.87867000  1.0
  S  S559  1  0.02570000  0.30756000  0.87212000  1.0
  S  S560  1  0.37916000  0.43415000  0.13982000  1.0
  S  S561  1  0.15646000  0.40174000  0.18729500  1.0
  S  S562  1  0.66416000  0.87040000  0.69745000  1.0
  S  S563  1  0.02044000  0.00647000  0.22072000  1.0
  S  S564  1  0.15278000  0.96056000  0.87762000  1.0
  S  S565  1  0.37220000  0.91634000  0.92764500  1.0
  S  S566  1  0.87810000  0.93190000  0.64688000  1.0
  S  S567  1  0.80406000  0.93441000  0.19736000  1.0
