# generated using pymatgen
data_Zn2H20(C11O5)3
_symmetry_space_group_name_H-M   'P 1'
_cell_length_a   29.42710000
_cell_length_b   29.60410000
_cell_length_c   29.54640000
_cell_angle_alpha   84.44700000
_cell_angle_beta   79.94800000
_cell_angle_gamma   82.79400000
_symmetry_Int_Tables_number   1
_chemical_formula_structural   Zn2H20(C11O5)3
_chemical_formula_sum   'Zn12 H120 C198 O90'
_cell_volume   25070.46721922
_cell_formula_units_Z   6
loop_
 _symmetry_equiv_pos_site_id
 _symmetry_equiv_pos_as_xyz
  1  'x, y, z'
loop_
 _atom_site_type_symbol
 _atom_site_label
 _atom_site_symmetry_multiplicity
 _atom_site_fract_x
 _atom_site_fract_y
 _atom_site_fract_z
 _atom_site_occupancy
  Zn  Zn0  1  0.62253000  0.98138000  0.37137000  1.0
  Zn  Zn1  1  0.85098000  0.10581000  0.48894000  1.0
  Zn  Zn2  1  0.21924000  0.83359000  0.39140000  1.0
  Zn  Zn3  1  0.93713000  0.56116000  0.37361000  1.0
  Zn  Zn4  1  0.98047000  0.33909000  0.66708000  1.0
  Zn  Zn5  1  0.30167000  0.95754000  0.59541000  1.0
  Zn  Zn6  1  0.74725000  0.37538000  0.25720000  1.0
  Zn  Zn7  1  0.46743000  0.85145000  0.12626000  1.0
  Zn  Zn8  1  0.31488000  0.66766000  0.96573000  1.0
  Zn  Zn9  1  0.59966000  0.42195000  0.98313000  1.0
  Zn  Zn10  1  0.45771000  0.23883000  0.81754000  1.0
  Zn  Zn11  1  0.17989000  0.44669000  0.77573000  1.0
  H  H12  1  0.93709000  0.92445000  0.36785000  1.0
  H  H13  1  0.87661000  0.76094000  0.45387000  1.0
  H  H14  1  0.86486000  0.85314000  0.47584000  1.0
  H  H15  1  0.83362000  0.81761000  0.41619000  1.0
  H  H16  1  0.86301000  0.85380000  0.37240000  1.0
  H  H17  1  0.95942000  0.84483000  0.36436000  1.0
  H  H18  1  0.97929000  0.88594000  0.42538000  1.0
  H  H19  1  0.94707000  0.85094000  0.46878000  1.0
  H  H20  1  0.92775000  0.49912000  0.92836000  1.0
  H  H21  1  0.88351000  0.32805000  0.01312000  1.0
  H  H22  1  0.92715000  0.36171000  0.92167000  1.0
  H  H23  1  0.95830000  0.35173000  0.99596000  1.0
  H  H24  1  0.96425000  0.41094000  0.99099000  1.0
  H  H25  1  0.88316000  0.46723000  0.99503000  1.0
  H  H26  1  0.85574000  0.47382000  0.92037000  1.0
  H  H27  1  0.85690000  0.41314000  0.92106000  1.0
  H  H28  1  0.42663000  0.87519000  0.86340000  1.0
  H  H29  1  0.32566000  0.04281000  0.85621000  1.0
  H  H30  1  0.33512000  0.98192000  0.91332000  1.0
  H  H31  1  0.39728000  0.03236000  0.88494000  1.0
  H  H32  1  0.43650000  0.98450000  0.86611000  1.0
  H  H33  1  0.42029000  0.93929000  0.80564000  1.0
  H  H34  1  0.35627000  0.88816000  0.83441000  1.0
  H  H35  1  0.31780000  0.93676000  0.85225000  1.0
  H  H36  1  0.53566000  0.85894000  0.57792000  1.0
  H  H37  1  0.56492000  0.89610000  0.48315000  1.0
  H  H38  1  0.43700000  0.88839000  0.57589000  1.0
  H  H39  1  0.45015000  0.00023000  0.47086000  1.0
  H  H40  1  0.76216000  0.25966000  0.66241000  1.0
  H  H41  1  0.85314000  0.27810000  0.67982000  1.0
  H  H42  1  0.80170000  0.18292000  0.60653000  1.0
  H  H43  1  0.94015000  0.22091000  0.56137000  1.0
  H  H44  1  0.13137000  0.09390000  0.43439000  1.0
  H  H45  1  0.16473000  0.01331000  0.38224000  1.0
  H  H46  1  0.20776000  0.07851000  0.48811000  1.0
  H  H47  1  0.24174000  0.93313000  0.47945000  1.0
  H  H48  1  0.11998000  0.42555000  0.46268000  1.0
  H  H49  1  0.06796000  0.40329000  0.55477000  1.0
  H  H50  1  0.04852000  0.49810000  0.43925000  1.0
  H  H51  1  0.92924000  0.45192000  0.53029000  1.0
  H  H52  1  0.20108000  0.82363000  0.15933000  1.0
  H  H53  1  0.29425000  0.84799000  0.12003000  1.0
  H  H54  1  0.20600000  0.85067000  0.25097000  1.0
  H  H55  1  0.35494000  0.83565000  0.24419000  1.0
  H  H56  1  0.67614000  0.50468000  0.45584000  1.0
  H  H57  1  0.69741000  0.46493000  0.36610000  1.0
  H  H58  1  0.75354000  0.56121000  0.43402000  1.0
  H  H59  1  0.84329000  0.48149000  0.33239000  1.0
  H  H60  1  0.68209000  0.81106000  0.20977000  1.0
  H  H61  1  0.66998000  0.89468000  0.25850000  1.0
  H  H62  1  0.60338000  0.84087000  0.16104000  1.0
  H  H63  1  0.52444000  0.93533000  0.25532000  1.0
  H  H64  1  0.70945000  0.14159000  0.31340000  1.0
  H  H65  1  0.71058000  0.24118000  0.30176000  1.0
  H  H66  1  0.74910000  0.13245000  0.39879000  1.0
  H  H67  1  0.82020000  0.25356000  0.37801000  1.0
  H  H68  1  0.55639000  0.64298000  0.86911000  1.0
  H  H69  1  0.45480000  0.64692000  0.89242000  1.0
  H  H70  1  0.57104000  0.54542000  0.89898000  1.0
  H  H71  1  0.44433000  0.53362000  0.99570000  1.0
  H  H72  1  0.12487000  0.67289000  0.84517000  1.0
  H  H73  1  0.15769000  0.58667000  0.80248000  1.0
  H  H74  1  0.21297000  0.67753000  0.87726000  1.0
  H  H75  1  0.26373000  0.53416000  0.88393000  1.0
  H  H76  1  0.66422000  0.34051000  0.72930000  1.0
  H  H77  1  0.59608000  0.27803000  0.77097000  1.0
  H  H78  1  0.68121000  0.36467000  0.81847000  1.0
  H  H79  1  0.55279000  0.33345000  0.90353000  1.0
  H  H80  1  0.38893000  0.41894000  0.61895000  1.0
  H  H81  1  0.29701000  0.41500000  0.67564000  1.0
  H  H82  1  0.42809000  0.33305000  0.66241000  1.0
  H  H83  1  0.33620000  0.33092000  0.79348000  1.0
  H  H84  1  0.74068000  0.95237000  0.53691000  1.0
  H  H85  1  0.81292000  0.90210000  0.52307000  1.0
  H  H86  1  0.69643000  0.97765000  0.47480000  1.0
  H  H87  1  0.80316000  0.90832000  0.37810000  1.0
  H  H88  1  0.88967000  0.96154000  0.57257000  1.0
  H  H89  1  0.89188000  0.89838000  0.52404000  1.0
  H  H90  1  0.90642000  0.03805000  0.53767000  1.0
  H  H91  1  0.92407000  0.99022000  0.40273000  1.0
  H  H92  1  0.05106000  0.69583000  0.44548000  1.0
  H  H93  1  0.97659000  0.73336000  0.43269000  1.0
  H  H94  1  0.12113000  0.73537000  0.42618000  1.0
  H  H95  1  0.04063000  0.85435000  0.37370000  1.0
  H  H96  1  0.92102000  0.78422000  0.24805000  1.0
  H  H97  1  0.91538000  0.82943000  0.31342000  1.0
  H  H98  1  0.92424000  0.70116000  0.25819000  1.0
  H  H99  1  0.91446000  0.70577000  0.40506000  1.0
  H  H100  1  0.91679000  0.52893000  0.77455000  1.0
  H  H101  1  0.91201000  0.51634000  0.85778000  1.0
  H  H102  1  0.93591000  0.46506000  0.72530000  1.0
  H  H103  1  0.94230000  0.37073000  0.84476000  1.0
  H  H104  1  0.37126000  0.86269000  0.69275000  1.0
  H  H105  1  0.40199000  0.87915000  0.76036000  1.0
  H  H106  1  0.32093000  0.92000000  0.65535000  1.0
  H  H107  1  0.33461000  0.01713000  0.75018000  1.0
  H  H108  1  0.93665000  0.44864000  0.13535000  1.0
  H  H109  1  0.94335000  0.44141000  0.05365000  1.0
  H  H110  1  0.87485000  0.41649000  0.19043000  1.0
  H  H111  1  0.82633000  0.36198000  0.07958000  1.0
  H  H112  1  0.37837000  0.04913000  0.03497000  1.0
  H  H113  1  0.35426000  0.03948000  0.96147000  1.0
  H  H114  1  0.42308000  0.98643000  0.07410000  1.0
  H  H115  1  0.42313000  0.90162000  0.96418000  1.0
  H  H116  1  0.25902000  0.88342000  0.02094000  1.0
  H  H117  1  0.30216000  0.93687000  0.96877000  1.0
  H  H118  1  0.27248000  0.80130000  0.01149000  1.0
  H  H119  1  0.37771000  0.82469000  0.89346000  1.0
  H  H120  1  0.74486000  0.50498000  0.09161000  1.0
  H  H121  1  0.82686000  0.49069000  0.05700000  1.0
  H  H122  1  0.68479000  0.47166000  0.06210000  1.0
  H  H123  1  0.78977000  0.40250000  0.96410000  1.0
  H  H124  1  0.50166000  0.04374000  0.70725000  1.0
  H  H125  1  0.45183000  0.98829000  0.74877000  1.0
  H  H126  1  0.49199000  0.12320000  0.72841000  1.0
  H  H127  1  0.37466000  0.09442000  0.83109000  1.0
  H  H128  1  0.07383000  0.27622000  0.90009000  1.0
  H  H129  1  0.99333000  0.30277000  0.93217000  1.0
  H  H130  1  0.12587000  0.32969000  0.85664000  1.0
  H  H131  1  0.01747000  0.44051000  0.87935000  1.0
  C  C132  1  0.86202000  0.87285000  0.44214000  1.0
  C  C133  1  0.90467000  0.90060000  0.42826000  1.0
  C  C134  1  0.86479000  0.83646000  0.40710000  1.0
  C  C135  1  0.95477000  0.82762000  0.39972000  1.0
  C  C136  1  0.94857000  0.86641000  0.43269000  1.0
  C  C137  1  0.90982000  0.80175000  0.40608000  1.0
  C  C138  1  0.94783000  0.38814000  0.92966000  1.0
  C  C139  1  0.92559000  0.43602000  0.91137000  1.0
  C  C140  1  0.94280000  0.38564000  0.98283000  1.0
  C  C141  1  0.86623000  0.43831000  0.98632000  1.0
  C  C142  1  0.87334000  0.44067000  0.93301000  1.0
  C  C143  1  0.89098000  0.39349000  0.00733000  1.0
  C  C144  1  0.37205000  0.96684000  0.90951000  1.0
  C  C145  1  0.37441000  0.91775000  0.89279000  1.0
  C  C146  1  0.39901000  0.99804000  0.87203000  1.0
  C  C147  1  0.38314000  0.95371000  0.80880000  1.0
  C  C148  1  0.35515000  0.92277000  0.84647000  1.0
  C  C149  1  0.37956000  0.00298000  0.82555000  1.0
  C  C150  1  0.59429000  0.94701000  0.30064000  1.0
  C  C151  1  0.54006000  0.97462000  0.43337000  1.0
  C  C152  1  0.71483000  0.95239000  0.38709000  1.0
  C  C153  1  0.81808000  0.17097000  0.42663000  1.0
  C  C154  1  0.87864000  0.16832000  0.54085000  1.0
  C  C155  1  0.93406000  0.06151000  0.44677000  1.0
  C  C156  1  0.20185000  0.92662000  0.40406000  1.0
  C  C157  1  0.27328000  0.83905000  0.30474000  1.0
  C  C158  1  0.12781000  0.82207000  0.38759000  1.0
  C  C159  1  0.95389000  0.50575000  0.45218000  1.0
  C  C160  1  0.84339000  0.54706000  0.39046000  1.0
  C  C161  1  0.92374000  0.64685000  0.33735000  1.0
  C  C162  1  0.97666000  0.39715000  0.58946000  1.0
  C  C163  1  0.93914000  0.27886000  0.62717000  1.0
  C  C164  1  0.95456000  0.37497000  0.75193000  1.0
  C  C165  1  0.38862000  0.96422000  0.54090000  1.0
  C  C166  1  0.25224000  0.00323000  0.52877000  1.0
  C  C167  1  0.30080000  0.01183000  0.67160000  1.0
  C  C168  1  0.77171000  0.29919000  0.31416000  1.0
  C  C169  1  0.77761000  0.43453000  0.31069000  1.0
  C  C170  1  0.80498000  0.37315000  0.17161000  1.0
  C  C171  1  0.37703000  0.83959000  0.15035000  1.0
  C  C172  1  0.51664000  0.88506000  0.18545000  1.0
  C  C173  1  0.44900000  0.90010000  0.04693000  1.0
  C  C174  1  0.39533000  0.61028000  0.96397000  1.0
  C  C175  1  0.27408000  0.61496000  0.91567000  1.0
  C  C176  1  0.33299000  0.75775000  0.94447000  1.0
  C  C177  1  0.62472000  0.38325000  0.89919000  1.0
  C  C178  1  0.53127000  0.49142000  0.97153000  1.0
  C  C179  1  0.69613000  0.41778000  0.99026000  1.0
  C  C180  1  0.42098000  0.29474000  0.75037000  1.0
  C  C181  1  0.52505000  0.28194000  0.84406000  1.0
  C  C182  1  0.42797000  0.16069000  0.79762000  1.0
  C  C183  1  0.26613000  0.39138000  0.76601000  1.0
  C  C184  1  0.20990000  0.50836000  0.82689000  1.0
  C  C185  1  0.10489000  0.42109000  0.83596000  1.0
  C  C186  1  0.51092000  0.95120000  0.47226000  1.0
  C  C187  1  0.52952000  0.91062000  0.49441000  1.0
  C  C188  1  0.50286000  0.88852000  0.53178000  1.0
  C  C189  1  0.45714000  0.90638000  0.54707000  1.0
  C  C190  1  0.46485000  0.96913000  0.48791000  1.0
  C  C191  1  0.43760000  0.94668000  0.52522000  1.0
  C  C192  1  0.90130000  0.25262000  0.62119000  1.0
  C  C193  1  0.85882000  0.25609000  0.65163000  1.0
  C  C194  1  0.82319000  0.23099000  0.64610000  1.0
  C  C195  1  0.82973000  0.20210000  0.61020000  1.0
  C  C196  1  0.90752000  0.22369000  0.58504000  1.0
  C  C197  1  0.87188000  0.19831000  0.57926000  1.0
  C  C198  1  0.20298000  0.96803000  0.42812000  1.0
  C  C199  1  0.18226000  0.01050000  0.41191000  1.0
  C  C200  1  0.18387000  0.04993000  0.43382000  1.0
  C  C201  1  0.20664000  0.04746000  0.47189000  1.0
  C  C202  1  0.22541000  0.96570000  0.46685000  1.0
  C  C203  1  0.22763000  0.00542000  0.48880000  1.0
  C  C204  1  0.99611000  0.42430000  0.54751000  1.0
  C  C205  1  0.04443000  0.42389000  0.53458000  1.0
  C  C206  1  0.06296000  0.45056000  0.49571000  1.0
  C  C207  1  0.03339000  0.47781000  0.46933000  1.0
  C  C208  1  0.96654000  0.45162000  0.52067000  1.0
  C  C209  1  0.98494000  0.47838000  0.48136000  1.0
  C  C210  1  0.33038000  0.84138000  0.17886000  1.0
  C  C211  1  0.29086000  0.84625000  0.15726000  1.0
  C  C212  1  0.24639000  0.84967000  0.18340000  1.0
  C  C213  1  0.24087000  0.84813000  0.23140000  1.0
  C  C214  1  0.32465000  0.83959000  0.22727000  1.0
  C  C215  1  0.27985000  0.84271000  0.25382000  1.0
  C  C216  1  0.77127000  0.46889000  0.34516000  1.0
  C  C217  1  0.72724000  0.48096000  0.37080000  1.0
  C  C218  1  0.72121000  0.51396000  0.40282000  1.0
  C  C219  1  0.75902000  0.53553000  0.40926000  1.0
  C  C220  1  0.80923000  0.49045000  0.35217000  1.0
  C  C221  1  0.80338000  0.52399000  0.38403000  1.0
  C  C222  1  0.59685000  0.91858000  0.26157000  1.0
  C  C223  1  0.63878000  0.89318000  0.24413000  1.0
  C  C224  1  0.64079000  0.86527000  0.20809000  1.0
  C  C225  1  0.60098000  0.86263000  0.18903000  1.0
  C  C226  1  0.55696000  0.91591000  0.24205000  1.0
  C  C227  1  0.55869000  0.88791000  0.20580000  1.0
  C  C228  1  0.76626000  0.25299000  0.33708000  1.0
  C  C229  1  0.73256000  0.22757000  0.32686000  1.0
  C  C230  1  0.72667000  0.18429000  0.34910000  1.0
  C  C231  1  0.75425000  0.16603000  0.38194000  1.0
  C  C232  1  0.79411000  0.23422000  0.36992000  1.0
  C  C233  1  0.78830000  0.19072000  0.39255000  1.0
  C  C234  1  0.44374000  0.59238000  0.94637000  1.0
  C  C235  1  0.46977000  0.61559000  0.90885000  1.0
  C  C236  1  0.51554000  0.59861000  0.89217000  1.0
  C  C237  1  0.53561000  0.55813000  0.91261000  1.0
  C  C238  1  0.46422000  0.55178000  0.96683000  1.0
  C  C239  1  0.51014000  0.53436000  0.95010000  1.0
  C  C240  1  0.21067000  0.55465000  0.84160000  1.0
  C  C241  1  0.18135000  0.59163000  0.82541000  1.0
  C  C242  1  0.18230000  0.63559000  0.83848000  1.0
  C  C243  1  0.21272000  0.64314000  0.86769000  1.0
  C  C244  1  0.24098000  0.56245000  0.87130000  1.0
  C  C245  1  0.24224000  0.60670000  0.88446000  1.0
  C  C246  1  0.56911000  0.30290000  0.83819000  1.0
  C  C247  1  0.60186000  0.29828000  0.79768000  1.0
  C  C248  1  0.64225000  0.32021000  0.79096000  1.0
  C  C249  1  0.65016000  0.34727000  0.82450000  1.0
  C  C250  1  0.57803000  0.32912000  0.87237000  1.0
  C  C251  1  0.61820000  0.35190000  0.86544000  1.0
  C  C252  1  0.31108000  0.37491000  0.73820000  1.0
  C  C253  1  0.32147000  0.39083000  0.69154000  1.0
  C  C254  1  0.36356000  0.37572000  0.66467000  1.0
  C  C255  1  0.39574000  0.34437000  0.68399000  1.0
  C  C256  1  0.34383000  0.34342000  0.75756000  1.0
  C  C257  1  0.38636000  0.32796000  0.73053000  1.0
  C  C258  1  0.75450000  0.94293000  0.50228000  1.0
  C  C259  1  0.79607000  0.91481000  0.49394000  1.0
  C  C260  1  0.81528000  0.90266000  0.44908000  1.0
  C  C261  1  0.78996000  0.91774000  0.41282000  1.0
  C  C262  1  0.72969000  0.95741000  0.46662000  1.0
  C  C263  1  0.74616000  0.94364000  0.42189000  1.0
  C  C264  1  0.89635000  0.96776000  0.53542000  1.0
  C  C265  1  0.89707000  0.93203000  0.50756000  1.0
  C  C266  1  0.90410000  0.93973000  0.45912000  1.0
  C  C267  1  0.91550000  0.98325000  0.43969000  1.0
  C  C268  1  0.90561000  0.01109000  0.51558000  1.0
  C  C269  1  0.91678000  0.01853000  0.46764000  1.0
  C  C270  1  0.04862000  0.73065000  0.43028000  1.0
  C  C271  1  0.00558000  0.75287000  0.42275000  1.0
  C  C272  1  0.00142000  0.79840000  0.40322000  1.0
  C  C273  1  0.04260000  0.81973000  0.38962000  1.0
  C  C274  1  0.08832000  0.75321000  0.41920000  1.0
  C  C275  1  0.08572000  0.79799000  0.39875000  1.0
  C  C276  1  0.91946000  0.76724000  0.28234000  1.0
  C  C277  1  0.91610000  0.79278000  0.32009000  1.0
  C  C278  1  0.91375000  0.77166000  0.36534000  1.0
  C  C279  1  0.91571000  0.72337000  0.37108000  1.0
  C  C280  1  0.92120000  0.72000000  0.28843000  1.0
  C  C281  1  0.91973000  0.69741000  0.33262000  1.0
  C  C282  1  0.92300000  0.49452000  0.79001000  1.0
  C  C283  1  0.92067000  0.48698000  0.83757000  1.0
  C  C284  1  0.92890000  0.44251000  0.85859000  1.0
  C  C285  1  0.93759000  0.40554000  0.83012000  1.0
  C  C286  1  0.93359000  0.45802000  0.76225000  1.0
  C  C287  1  0.94123000  0.41320000  0.78196000  1.0
  C  C288  1  0.36365000  0.89653000  0.70509000  1.0
  C  C289  1  0.38085000  0.90610000  0.74360000  1.0
  C  C290  1  0.36896000  0.94887000  0.76211000  1.0
  C  C291  1  0.34268000  0.98336000  0.73802000  1.0
  C  C292  1  0.33574000  0.92995000  0.68305000  1.0
  C  C293  1  0.32678000  0.97446000  0.69755000  1.0
  C  C294  1  0.91326000  0.42886000  0.12323000  1.0
  C  C295  1  0.91750000  0.42352000  0.07635000  1.0
  C  C296  1  0.88798000  0.39720000  0.05962000  1.0
  C  C297  1  0.85151000  0.37963000  0.09162000  1.0
  C  C298  1  0.87799000  0.41048000  0.15437000  1.0
  C  C299  1  0.84591000  0.38682000  0.13884000  1.0
  C  C300  1  0.38830000  0.01708000  0.01919000  1.0
  C  C301  1  0.37479000  0.01139000  0.97737000  1.0
  C  C302  1  0.38752000  0.97012000  0.95598000  1.0
  C  C303  1  0.41370000  0.93427000  0.97846000  1.0
  C  C304  1  0.41392000  0.98141000  0.04112000  1.0
  C  C305  1  0.42635000  0.93947000  0.02127000  1.0
  C  C306  1  0.28525000  0.87067000  0.99328000  1.0
  C  C307  1  0.31059000  0.90112000  0.96311000  1.0
  C  C308  1  0.34571000  0.88526000  0.92726000  1.0
  C  C309  1  0.35243000  0.83786000  0.92161000  1.0
  C  C310  1  0.29306000  0.82402000  0.98774000  1.0
  C  C311  1  0.32630000  0.80715000  0.95150000  1.0
  C  C312  1  0.75472000  0.48305000  0.06343000  1.0
  C  C313  1  0.80123000  0.47485000  0.04360000  1.0
  C  C314  1  0.81475000  0.44633000  0.00706000  1.0
  C  C315  1  0.78026000  0.42550000  0.99135000  1.0
  C  C316  1  0.72075000  0.46377000  0.04660000  1.0
  C  C317  1  0.73300000  0.43519000  0.01002000  1.0
  C  C318  1  0.47364000  0.05475000  0.73416000  1.0
  C  C319  1  0.44454000  0.02325000  0.75782000  1.0
  C  C320  1  0.40782000  0.03695000  0.79299000  1.0
  C  C321  1  0.40156000  0.08320000  0.80329000  1.0
  C  C322  1  0.46800000  0.09987000  0.74618000  1.0
  C  C323  1  0.43210000  0.11436000  0.78127000  1.0
  C  C324  1  0.06135000  0.31209000  0.89566000  1.0
  C  C325  1  0.01565000  0.32740000  0.91390000  1.0
  C  C326  1  0.99859000  0.37387000  0.90873000  1.0
  C  C327  1  0.02904000  0.40466000  0.88447000  1.0
  C  C328  1  0.09082000  0.34266000  0.87120000  1.0
  C  C329  1  0.07483000  0.38915000  0.86488000  1.0
  O  O330  1  0.90499000  0.91859000  0.38201000  1.0
  O  O331  1  0.90579000  0.77567000  0.44894000  1.0
  O  O332  1  0.94840000  0.46996000  0.92623000  1.0
  O  O333  1  0.86795000  0.35659000  0.99949000  1.0
  O  O334  1  0.42166000  0.89923000  0.88549000  1.0
  O  O335  1  0.33206000  0.02066000  0.83214000  1.0
  O  O336  1  0.55473000  0.96990000  0.31746000  1.0
  O  O337  1  0.63083000  0.94854000  0.32027000  1.0
  O  O338  1  0.67551000  0.97864000  0.39715000  1.0
  O  O339  1  0.72145000  0.92781000  0.35133000  1.0
  O  O340  1  0.52649000  0.01602000  0.41700000  1.0
  O  O341  1  0.58083000  0.95441000  0.41610000  1.0
  O  O342  1  0.85255000  0.19225000  0.43358000  1.0
  O  O343  1  0.81127000  0.13133000  0.44942000  1.0
  O  O344  1  0.91003000  0.10102000  0.45538000  1.0
  O  O345  1  0.97388000  0.06047000  0.41857000  1.0
  O  O346  1  0.91674000  0.16748000  0.51011000  1.0
  O  O347  1  0.84623000  0.14288000  0.53676000  1.0
  O  O348  1  0.18595000  0.93007000  0.36486000  1.0
  O  O349  1  0.21759000  0.88615000  0.42111000  1.0
  O  O350  1  0.16441000  0.80739000  0.40712000  1.0
  O  O351  1  0.12919000  0.85795000  0.35774000  1.0
  O  O352  1  0.30878000  0.82766000  0.32658000  1.0
  O  O353  1  0.23117000  0.84444000  0.32852000  1.0
  O  O354  1  0.90896000  0.50302000  0.46062000  1.0
  O  O355  1  0.97155000  0.53111000  0.41597000  1.0
  O  O356  1  0.92642000  0.62355000  0.37708000  1.0
  O  O357  1  0.92712000  0.62409000  0.30063000  1.0
  O  O358  1  0.83759000  0.58070000  0.41756000  1.0
  O  O359  1  0.88523000  0.53398000  0.36890000  1.0
  O  O360  1  0.93205000  0.40300000  0.60590000  1.0
  O  O361  1  0.00412000  0.36833000  0.61193000  1.0
  O  O362  1  0.95851000  0.38322000  0.70707000  1.0
  O  O363  1  0.96541000  0.33323000  0.76925000  1.0
  O  O364  1  0.97971000  0.27376000  0.60027000  1.0
  O  O365  1  0.93278000  0.30740000  0.65965000  1.0
  O  O366  1  0.36890000  0.00050000  0.51965000  1.0
  O  O367  1  0.36396000  0.94210000  0.57534000  1.0
  O  O368  1  0.29039000  0.00774000  0.63051000  1.0
  O  O369  1  0.28876000  0.05145000  0.68935000  1.0
  O  O370  1  0.25782000  0.04081000  0.54643000  1.0
  O  O371  1  0.26931000  0.96365000  0.54652000  1.0
  O  O372  1  0.80209000  0.32368000  0.32469000  1.0
  O  O373  1  0.74508000  0.31670000  0.28403000  1.0
  O  O374  1  0.80072000  0.38104000  0.21526000  1.0
  O  O375  1  0.77060000  0.35783000  0.15689000  1.0
  O  O376  1  0.81919000  0.42219000  0.28815000  1.0
  O  O377  1  0.74168000  0.41665000  0.30172000  1.0
  O  O378  1  0.38157000  0.83648000  0.10572000  1.0
  O  O379  1  0.41397000  0.84456000  0.16805000  1.0
  O  O380  1  0.45500000  0.90351000  0.08941000  1.0
  O  O381  1  0.45701000  0.85975000  0.03030000  1.0
  O  O382  1  0.47823000  0.91188000  0.19770000  1.0
  O  O383  1  0.51760000  0.85583000  0.15448000  1.0
  O  O384  1  0.37152000  0.58963000  0.00014000  1.0
  O  O385  1  0.37533000  0.64682000  0.94344000  1.0
  O  O386  1  0.30926000  0.72923000  0.97336000  1.0
  O  O387  1  0.36187000  0.74204000  0.90891000  1.0
  O  O388  1  0.29965000  0.58074000  0.93384000  1.0
  O  O389  1  0.27668000  0.65668000  0.92594000  1.0
  O  O390  1  0.64467000  0.42052000  0.88496000  1.0
  O  O391  1  0.60587000  0.37687000  0.94271000  1.0
  O  O392  1  0.65242000  0.43221000  0.00501000  1.0
  O  O393  1  0.70667000  0.39099000  0.95615000  1.0
  O  O394  1  0.50711000  0.46834000  0.00564000  1.0
  O  O395  1  0.57442000  0.47565000  0.95653000  1.0
  O  O396  1  0.45933000  0.27886000  0.72415000  1.0
  O  O397  1  0.41402000  0.28060000  0.79427000  1.0
  O  O398  1  0.46352000  0.18477000  0.78955000  1.0
  O  O399  1  0.38994000  0.17657000  0.82430000  1.0
  O  O400  1  0.49551000  0.28432000  0.88283000  1.0
  O  O401  1  0.51403000  0.26227000  0.81002000  1.0
  O  O402  1  0.25478000  0.37581000  0.80915000  1.0
  O  O403  1  0.23721000  0.42198000  0.74714000  1.0
  O  O404  1  0.14774000  0.40702000  0.81764000  1.0
  O  O405  1  0.08790000  0.46322000  0.82534000  1.0
  O  O406  1  0.23746000  0.47357000  0.84126000  1.0
  O  O407  1  0.18210000  0.50206000  0.79832000  1.0
  O  O408  1  0.52136000  0.84902000  0.55307000  1.0
  O  O409  1  0.78203000  0.23435000  0.67617000  1.0
  O  O410  1  0.16371000  0.09115000  0.41754000  1.0
  O  O411  1  0.11010000  0.45036000  0.48373000  1.0
  O  O412  1  0.20817000  0.85505000  0.16193000  1.0
  O  O413  1  0.67807000  0.52564000  0.42746000  1.0
  O  O414  1  0.68188000  0.84079000  0.19117000  1.0
  O  O415  1  0.69351000  0.15997000  0.33907000  1.0
  O  O416  1  0.54054000  0.62133000  0.85542000  1.0
  O  O417  1  0.15382000  0.67139000  0.82219000  1.0
  O  O418  1  0.67400000  0.31533000  0.75141000  1.0
  O  O419  1  0.37305000  0.39127000  0.61919000  1.0
