# generated using pymatgen
data_CoCu4H100C160(N9O4)4
_symmetry_space_group_name_H-M   'P 1'
_cell_length_a   24.07010000
_cell_length_b   26.64510000
_cell_length_c   53.69440000
_cell_angle_alpha   90.00000000
_cell_angle_beta   89.99900000
_cell_angle_gamma   101.67500000
_symmetry_Int_Tables_number   1
_chemical_formula_structural   CoCu4H100C160(N9O4)4
_chemical_formula_sum   'Co2 Cu8 H200 C320 N72 O32'
_cell_volume   33724.45687637
_cell_formula_units_Z   2
loop_
 _symmetry_equiv_pos_site_id
 _symmetry_equiv_pos_as_xyz
  1  'x, y, z'
loop_
 _atom_site_type_symbol
 _atom_site_label
 _atom_site_symmetry_multiplicity
 _atom_site_fract_x
 _atom_site_fract_y
 _atom_site_fract_z
 _atom_site_occupancy
  C  C0  1  0.08516000  0.10337000  0.02619000  1.0
  C  C1  1  0.09432000  0.11713000  0.00129000  1.0
  C  C2  1  0.11950000  0.16636000  0.99397000  1.0
  C  C3  1  0.05936000  0.05409000  0.03342000  1.0
  C  C4  1  0.04950000  0.04010000  0.05809000  1.0
  C  C5  1  0.99262000  0.92564000  0.02599000  1.0
  C  C6  1  0.98868000  0.91075000  0.00110000  1.0
  C  C7  1  0.96518000  0.86115000  0.99372000  1.0
  C  C8  1  0.01784000  0.97500000  0.03332000  1.0
  C  C9  1  0.02304000  0.98997000  0.05802000  1.0
  C  C10  1  0.99248000  0.90994000  0.96127000  1.0
  C  C11  1  0.02570000  0.97340000  0.92911000  1.0
  C  C12  1  0.00122000  0.92380000  0.93636000  1.0
  C  C13  1  0.96756000  0.86064000  0.96860000  1.0
  C  C14  1  0.03366000  0.98787000  0.90442000  1.0
  C  C15  1  0.08806000  0.10298000  0.93648000  1.0
  C  C16  1  0.09534000  0.11702000  0.96142000  1.0
  C  C17  1  0.12008000  0.16630000  0.96882000  1.0
  C  C18  1  0.06426000  0.05326000  0.92916000  1.0
  C  C19  1  0.05800000  0.03854000  0.90445000  1.0
  C  C20  1  0.58292000  0.61125000  0.52736000  1.0
  C  C21  1  0.58738000  0.62643000  0.50250000  1.0
  C  C22  1  0.61090000  0.67615000  0.49531000  1.0
  C  C23  1  0.55752000  0.56183000  0.53451000  1.0
  C  C24  1  0.55160000  0.54664000  0.55918000  1.0
  C  C25  1  0.49056000  0.43349000  0.52692000  1.0
  C  C26  1  0.48254000  0.41986000  0.50194000  1.0
  C  C27  1  0.45786000  0.37062000  0.49444000  1.0
  C  C28  1  0.51610000  0.48271000  0.53432000  1.0
  C  C29  1  0.52524000  0.49649000  0.55905000  1.0
  C  C30  1  0.48272000  0.42031000  0.46207000  1.0
  C  C31  1  0.51484000  0.48436000  0.43004000  1.0
  C  C32  1  0.49080000  0.43457000  0.43718000  1.0
  C  C33  1  0.45794000  0.37091000  0.46930000  1.0
  C  C34  1  0.52218000  0.49920000  0.40537000  1.0
  C  C35  1  0.57794000  0.61374000  0.43767000  1.0
  C  C36  1  0.58510000  0.62755000  0.46265000  1.0
  C  C37  1  0.60942000  0.67686000  0.47016000  1.0
  C  C38  1  0.55358000  0.56419000  0.43026000  1.0
  C  C39  1  0.54666000  0.54984000  0.40551000  1.0
  C  C40  1  0.20788000  0.30454000  0.86585000  1.0
  C  C41  1  0.19512000  0.37338000  0.88371000  1.0
  C  C42  1  0.16548000  0.33195000  0.89672000  1.0
  C  C43  1  0.33018000  0.32015000  0.81984000  1.0
  C  C44  1  0.33448000  0.29000000  0.79941000  1.0
  C  C45  1  0.27310000  0.33662000  0.79173000  1.0
  C  C46  1  0.17246000  0.45189000  0.82952000  1.0
  C  C47  1  0.23734000  0.47071000  0.80170000  1.0
  C  C48  1  0.19580000  0.49822000  0.79690000  1.0
  C  C49  1  0.39018000  0.44492000  0.84508000  1.0
  C  C50  1  0.34028000  0.46650000  0.87481000  1.0
  C  C51  1  0.39646000  0.48830000  0.87910000  1.0
  C  C52  1  0.87964000  0.72352000  0.86518000  1.0
  C  C53  1  0.89052000  0.65451000  0.88346000  1.0
  C  C54  1  0.91998000  0.69575000  0.89660000  1.0
  C  C55  1  0.75516000  0.70536000  0.81971000  1.0
  C  C56  1  0.74520000  0.73170000  0.79866000  1.0
  C  C57  1  0.80618000  0.68518000  0.79004000  1.0
  C  C58  1  0.92356000  0.58532000  0.82793000  1.0
  C  C59  1  0.86050000  0.56257000  0.79969000  1.0
  C  C60  1  0.90646000  0.54072000  0.79442000  1.0
  C  C61  1  0.70180000  0.57363000  0.84382000  1.0
  C  C62  1  0.75574000  0.55346000  0.87236000  1.0
  C  C63  1  0.70142000  0.52612000  0.87623000  1.0
  C  C64  1  0.87358000  0.72666000  0.09876000  1.0
  C  C65  1  0.84842000  0.66243000  0.07421000  1.0
  C  C66  1  0.87562000  0.70368000  0.06039000  1.0
  C  C67  1  0.74252000  0.70703000  0.14551000  1.0
  C  C68  1  0.73788000  0.73756000  0.16578000  1.0
  C  C69  1  0.80508000  0.69683000  0.17246000  1.0
  C  C70  1  0.91784000  0.59390000  0.13290000  1.0
  C  C71  1  0.86390000  0.57938000  0.16500000  1.0
  C  C72  1  0.91132000  0.55902000  0.16920000  1.0
  C  C73  1  0.69240000  0.57672000  0.12076000  1.0
  C  C74  1  0.75048000  0.54471000  0.09841000  1.0
  C  C75  1  0.69676000  0.51584000  0.09497000  1.0
  C  C76  1  0.19968000  0.30605000  0.09725000  1.0
  C  C77  1  0.18494000  0.37429000  0.07946000  1.0
  C  C78  1  0.15596000  0.33248000  0.06653000  1.0
  C  C79  1  0.31726000  0.32122000  0.14363000  1.0
  C  C80  1  0.32692000  0.29681000  0.16529000  1.0
  C  C81  1  0.27216000  0.34959000  0.17322000  1.0
  C  C82  1  0.16624000  0.45771000  0.13163000  1.0
  C  C83  1  0.23552000  0.48293000  0.15679000  1.0
  C  C84  1  0.19546000  0.51254000  0.16056000  1.0
  C  C85  1  0.38148000  0.44732000  0.11811000  1.0
  C  C86  1  0.33560000  0.45787000  0.08491000  1.0
  C  C87  1  0.39230000  0.47840000  0.08105000  1.0
  C  C88  1  0.70092000  0.81208000  0.36651000  1.0
  C  C89  1  0.69428000  0.88280000  0.38424000  1.0
  C  C90  1  0.66152000  0.84307000  0.39727000  1.0
  C  C91  1  0.82558000  0.82351000  0.32019000  1.0
  C  C92  1  0.83376000  0.79758000  0.29877000  1.0
  C  C93  1  0.77654000  0.84820000  0.29095000  1.0
  C  C94  1  0.67118000  0.95761000  0.32963000  1.0
  C  C95  1  0.73760000  0.97855000  0.30265000  1.0
  C  C96  1  0.69620000  0.00631000  0.29794000  1.0
  C  C97  1  0.88962000  0.94858000  0.34580000  1.0
  C  C98  1  0.83916000  0.97690000  0.37333000  1.0
  C  C99  1  0.89538000  0.99904000  0.37736000  1.0
  C  C100  1  0.37614000  0.23224000  0.36587000  1.0
  C  C101  1  0.39014000  0.16393000  0.38384000  1.0
  C  C102  1  0.41818000  0.20566000  0.39708000  1.0
  C  C103  1  0.25246000  0.21179000  0.31998000  1.0
  C  C104  1  0.24632000  0.24244000  0.29995000  1.0
  C  C105  1  0.31162000  0.20039000  0.29170000  1.0
  C  C106  1  0.42290000  0.09247000  0.32918000  1.0
  C  C107  1  0.36392000  0.07565000  0.29892000  1.0
  C  C108  1  0.41002000  0.05387000  0.29386000  1.0
  C  C109  1  0.20162000  0.07945000  0.34326000  1.0
  C  C110  1  0.25414000  0.06461000  0.37355000  1.0
  C  C111  1  0.19998000  0.03691000  0.37737000  1.0
  C  C112  1  0.37966000  0.22994000  0.59698000  1.0
  C  C113  1  0.39028000  0.16099000  0.57859000  1.0
  C  C114  1  0.42096000  0.20226000  0.56585000  1.0
  C  C115  1  0.25994000  0.21674000  0.64282000  1.0
  C  C116  1  0.25096000  0.24156000  0.66445000  1.0
  C  C117  1  0.30470000  0.18791000  0.67238000  1.0
  C  C118  1  0.40982000  0.07946000  0.63161000  1.0
  C  C119  1  0.34066000  0.05484000  0.65689000  1.0
  C  C120  1  0.38088000  0.02553000  0.66094000  1.0
  C  C121  1  0.19436000  0.09034000  0.61762000  1.0
  C  C122  1  0.24052000  0.07621000  0.58506000  1.0
  C  C123  1  0.18380000  0.05557000  0.58134000  1.0
  C  C124  1  0.70022000  0.81103000  0.60009000  1.0
  C  C125  1  0.73200000  0.87273000  0.57486000  1.0
  C  C126  1  0.70490000  0.83120000  0.56121000  1.0
  C  C127  1  0.83458000  0.83118000  0.64611000  1.0
  C  C128  1  0.83986000  0.80054000  0.66626000  1.0
  C  C129  1  0.77224000  0.84058000  0.67333000  1.0
  C  C130  1  0.65834000  0.94357000  0.63364000  1.0
  C  C131  1  0.71216000  0.95816000  0.66578000  1.0
  C  C132  1  0.66480000  0.97865000  0.66989000  1.0
  C  C133  1  0.88344000  0.96122000  0.62149000  1.0
  C  C134  1  0.82540000  0.99152000  0.59836000  1.0
  C  C135  1  0.87908000  0.02027000  0.59468000  1.0
  C  C136  1  0.05202000  0.57645000  0.81559000  1.0
  C  C137  1  0.00006000  0.54028000  0.81402000  1.0
  C  C138  1  0.00092000  0.48786000  0.81408000  1.0
  C  C139  1  0.05194000  0.47086000  0.81525000  1.0
  C  C140  1  0.10380000  0.50574000  0.81629000  1.0
  C  C141  1  0.10410000  0.55893000  0.81733000  1.0
  C  C142  1  0.05366000  0.62965000  0.81485000  1.0
  C  C143  1  0.10492000  0.66465000  0.81733000  1.0
  C  C144  1  0.15534000  0.64745000  0.82037000  1.0
  C  C145  1  0.15518000  0.59513000  0.82033000  1.0
  C  C146  1  0.04968000  0.58721000  0.14074000  1.0
  C  C147  1  0.99810000  0.55220000  0.14559000  1.0
  C  C148  1  0.99862000  0.49997000  0.14812000  1.0
  C  C149  1  0.04908000  0.48218000  0.14663000  1.0
  C  C150  1  0.10078000  0.51611000  0.14270000  1.0
  C  C151  1  0.10120000  0.56879000  0.13880000  1.0
  C  C152  1  0.05160000  0.64026000  0.13842000  1.0
  C  C153  1  0.10242000  0.67394000  0.13292000  1.0
  C  C154  1  0.15214000  0.65558000  0.12985000  1.0
  C  C155  1  0.15178000  0.60355000  0.13278000  1.0
  C  C156  1  0.60434000  0.06579000  0.31975000  1.0
  C  C157  1  0.60348000  0.01277000  0.31697000  1.0
  C  C158  1  0.55142000  0.97860000  0.31449000  1.0
  C  C159  1  0.50080000  0.99634000  0.31350000  1.0
  C  C160  1  0.50054000  0.04879000  0.31512000  1.0
  C  C161  1  0.55268000  0.08414000  0.31831000  1.0
  C  C162  1  0.65558000  0.10097000  0.32415000  1.0
  C  C163  1  0.65638000  0.15326000  0.32601000  1.0
  C  C164  1  0.60642000  0.17145000  0.32341000  1.0
  C  C165  1  0.55502000  0.13741000  0.31949000  1.0
  C  C166  1  0.47510000  0.96896000  0.63920000  1.0
  C  C167  1  0.47550000  0.02162000  0.64315000  1.0
  C  C168  1  0.52716000  0.05551000  0.64721000  1.0
  C  C169  1  0.57760000  0.03769000  0.64879000  1.0
  C  C170  1  0.57812000  0.98547000  0.64619000  1.0
  C  C171  1  0.52656000  0.95049000  0.64121000  1.0
  C  C172  1  0.42452000  0.93428000  0.63309000  1.0
  C  C173  1  0.42416000  0.88227000  0.63007000  1.0
  C  C174  1  0.47384000  0.86386000  0.63317000  1.0
  C  C175  1  0.52460000  0.89746000  0.63881000  1.0
  C  C176  1  0.23722000  0.25353000  0.74823000  1.0
  C  C177  1  0.29096000  0.27842000  0.75740000  1.0
  C  C178  1  0.33910000  0.28130000  0.74240000  1.0
  C  C179  1  0.33456000  0.26195000  0.71827000  1.0
  C  C180  1  0.28178000  0.23903000  0.70845000  1.0
  C  C181  1  0.23268000  0.23366000  0.72352000  1.0
  C  C182  1  0.18826000  0.24628000  0.76331000  1.0
  C  C183  1  0.13590000  0.22106000  0.75406000  1.0
  C  C184  1  0.13152000  0.20173000  0.72991000  1.0
  C  C185  1  0.17940000  0.20755000  0.71476000  1.0
  C  C186  1  0.73374000  0.73015000  0.73895000  1.0
  C  C187  1  0.78110000  0.73804000  0.75515000  1.0
  C  C188  1  0.83328000  0.76613000  0.74693000  1.0
  C  C189  1  0.83874000  0.78782000  0.72328000  1.0
  C  C190  1  0.79218000  0.78220000  0.70717000  1.0
  C  C191  1  0.73926000  0.75238000  0.71472000  1.0
  C  C192  1  0.68148000  0.69916000  0.74605000  1.0
  C  C193  1  0.63546000  0.69083000  0.72976000  1.0
  C  C194  1  0.64082000  0.71248000  0.70608000  1.0
  C  C195  1  0.69228000  0.74258000  0.69845000  1.0
  C  C196  1  0.84578000  0.80359000  0.23904000  1.0
  C  C197  1  0.79844000  0.79583000  0.25525000  1.0
  C  C198  1  0.74570000  0.76954000  0.24675000  1.0
  C  C199  1  0.73962000  0.74929000  0.22281000  1.0
  C  C200  1  0.78614000  0.75465000  0.20668000  1.0
  C  C201  1  0.83964000  0.78290000  0.21450000  1.0
  C  C202  1  0.89870000  0.83285000  0.24649000  1.0
  C  C203  1  0.94472000  0.84112000  0.23020000  1.0
  C  C204  1  0.93874000  0.82109000  0.20619000  1.0
  C  C205  1  0.88664000  0.79265000  0.19824000  1.0
  C  C206  1  0.34270000  0.28547000  0.24886000  1.0
  C  C207  1  0.28982000  0.25855000  0.25805000  1.0
  C  C208  1  0.24122000  0.25454000  0.24323000  1.0
  C  C209  1  0.24458000  0.27452000  0.21922000  1.0
  C  C210  1  0.29662000  0.29920000  0.20934000  1.0
  C  C211  1  0.34604000  0.30588000  0.22426000  1.0
  C  C212  1  0.39194000  0.29412000  0.26380000  1.0
  C  C213  1  0.44346000  0.32114000  0.25448000  1.0
  C  C214  1  0.44668000  0.34089000  0.23042000  1.0
  C  C215  1  0.39846000  0.33375000  0.21543000  1.0
  C  C216  1  0.58302000  0.46768000  0.85484000  1.0
  C  C217  1  0.60762000  0.52063000  0.85579000  1.0
  C  C218  1  0.57238000  0.55639000  0.85649000  1.0
  C  C219  1  0.51364000  0.54043000  0.85762000  1.0
  C  C220  1  0.48826000  0.48826000  0.85792000  1.0
  C  C221  1  0.52298000  0.45122000  0.85647000  1.0
  C  C222  1  0.61702000  0.43070000  0.85215000  1.0
  C  C223  1  0.59274000  0.37861000  0.85229000  1.0
  C  C224  1  0.53442000  0.36242000  0.85512000  1.0
  C  C225  1  0.49970000  0.39821000  0.85729000  1.0
  C  C226  1  0.51482000  0.45013000  0.11241000  1.0
  C  C227  1  0.48114000  0.48592000  0.10561000  1.0
  C  C228  1  0.50718000  0.53733000  0.10191000  1.0
  C  C229  1  0.56566000  0.55356000  0.10426000  1.0
  C  C230  1  0.60000000  0.51882000  0.11037000  1.0
  C  C231  1  0.57450000  0.46713000  0.11544000  1.0
  C  C232  1  0.49102000  0.39761000  0.11561000  1.0
  C  C233  1  0.52456000  0.36342000  0.12316000  1.0
  C  C234  1  0.58224000  0.38066000  0.12748000  1.0
  C  C235  1  0.60718000  0.43198000  0.12367000  1.0
  C  C236  1  0.02258000  0.95777000  0.35904000  1.0
  C  C237  1  0.98758000  0.99455000  0.35757000  1.0
  C  C238  1  0.01276000  0.04636000  0.35440000  1.0
  C  C239  1  0.07156000  0.06234000  0.35337000  1.0
  C  C240  1  0.10710000  0.02702000  0.35559000  1.0
  C  C241  1  0.08268000  0.97410000  0.35747000  1.0
  C  C242  1  0.99944000  0.90528000  0.36273000  1.0
  C  C243  1  0.03442000  0.86950000  0.36351000  1.0
  C  C244  1  0.09282000  0.88521000  0.36071000  1.0
  C  C245  1  0.11690000  0.93695000  0.35768000  1.0
  C  C246  1  0.00140000  0.07060000  0.61435000  1.0
  C  C247  1  0.97584000  0.01845000  0.61046000  1.0
  C  C248  1  0.01016000  0.98309000  0.60545000  1.0
  C  C249  1  0.06866000  0.99900000  0.60299000  1.0
  C  C250  1  0.09474000  0.05072000  0.60549000  1.0
  C  C251  1  0.06110000  0.08720000  0.61118000  1.0
  C  C252  1  0.96880000  0.10660000  0.62151000  1.0
  C  C253  1  0.99380000  0.15825000  0.62408000  1.0
  C  C254  1  0.05148000  0.17496000  0.61960000  1.0
  C  C255  1  0.08498000  0.13997000  0.61314000  1.0
  C  C256  1  0.16362000  0.15569000  0.91040000  1.0
  C  C257  1  0.10632000  0.14372000  0.91738000  1.0
  C  C258  1  0.07004000  0.17692000  0.91058000  1.0
  C  C259  1  0.01032000  0.16560000  0.91711000  1.0
  C  C260  1  0.09272000  0.22337000  0.89866000  1.0
  C  C261  1  0.15086000  0.23728000  0.89337000  1.0
  C  C262  1  0.18636000  0.20227000  0.89850000  1.0
  C  C263  1  0.24696000  0.21521000  0.89385000  1.0
  C  C264  1  0.92588000  0.87261000  0.90968000  1.0
  C  C265  1  0.98284000  0.88322000  0.91720000  1.0
  C  C266  1  0.01826000  0.84903000  0.91077000  1.0
  C  C267  1  0.07764000  0.85892000  0.91788000  1.0
  C  C268  1  0.99492000  0.80296000  0.89868000  1.0
  C  C269  1  0.93696000  0.79037000  0.89289000  1.0
  C  C270  1  0.90246000  0.82639000  0.89760000  1.0
  C  C271  1  0.84210000  0.81487000  0.89232000  1.0
  C  C272  1  0.00246000  0.85316000  0.05380000  1.0
  C  C273  1  0.96850000  0.88640000  0.04503000  1.0
  C  C274  1  0.90968000  0.87556000  0.05011000  1.0
  C  C275  1  0.87324000  0.90932000  0.04163000  1.0
  C  C276  1  0.88532000  0.82956000  0.06210000  1.0
  C  C277  1  0.91866000  0.79441000  0.06889000  1.0
  C  C278  1  0.97788000  0.80700000  0.06560000  1.0
  C  C279  1  0.01336000  0.77157000  0.07297000  1.0
  C  C280  1  0.15900000  0.15706000  0.05275000  1.0
  C  C281  1  0.10204000  0.14431000  0.04531000  1.0
  C  C282  1  0.06474000  0.17681000  0.05178000  1.0
  C  C283  1  0.00540000  0.16486000  0.04463000  1.0
  C  C284  1  0.08608000  0.22327000  0.06393000  1.0
  C  C285  1  0.14392000  0.23800000  0.06970000  1.0
  C  C286  1  0.18046000  0.20375000  0.06481000  1.0
  C  C287  1  0.24084000  0.21757000  0.06986000  1.0
  C  C288  1  0.56124000  0.68713000  0.41211000  1.0
  C  C289  1  0.59762000  0.65434000  0.41862000  1.0
  C  C290  1  0.65492000  0.66627000  0.41097000  1.0
  C  C291  1  0.69372000  0.63281000  0.41691000  1.0
  C  C292  1  0.67570000  0.71282000  0.39867000  1.0
  C  C293  1  0.64054000  0.74792000  0.39432000  1.0
  C  C294  1  0.58214000  0.73395000  0.40012000  1.0
  C  C295  1  0.54314000  0.76723000  0.39418000  1.0
  C  C296  1  0.41664000  0.38133000  0.41059000  1.0
  C  C297  1  0.47368000  0.39386000  0.41797000  1.0
  C  C298  1  0.51072000  0.36120000  0.41141000  1.0
  C  C299  1  0.57018000  0.37305000  0.41839000  1.0
  C  C300  1  0.48904000  0.31470000  0.39935000  1.0
  C  C301  1  0.43114000  0.30018000  0.39369000  1.0
  C  C302  1  0.39490000  0.33466000  0.39855000  1.0
  C  C303  1  0.33452000  0.32106000  0.39348000  1.0
  C  C304  1  0.51232000  0.36156000  0.55199000  1.0
  C  C305  1  0.47348000  0.39231000  0.54590000  1.0
  C  C306  1  0.41654000  0.37762000  0.55379000  1.0
  C  C307  1  0.37540000  0.40915000  0.54846000  1.0
  C  C308  1  0.39858000  0.33022000  0.56575000  1.0
  C  C309  1  0.43630000  0.29713000  0.56957000  1.0
  C  C310  1  0.49430000  0.31401000  0.56370000  1.0
  C  C311  1  0.53580000  0.28296000  0.56928000  1.0
  C  C312  1  0.57332000  0.68338000  0.55548000  1.0
  C  C313  1  0.60714000  0.65015000  0.54654000  1.0
  C  C314  1  0.66596000  0.66083000  0.55153000  1.0
  C  C315  1  0.70224000  0.62696000  0.54297000  1.0
  C  C316  1  0.69056000  0.70679000  0.56347000  1.0
  C  C317  1  0.65742000  0.74198000  0.57041000  1.0
  C  C318  1  0.59812000  0.72945000  0.56733000  1.0
  C  C319  1  0.56288000  0.76503000  0.57475000  1.0
  Co  Co320  1  0.04248000  0.01376000  0.98126000  1.0
  Co  Co321  1  0.53464000  0.52349000  0.48228000  1.0
  Cu  Cu322  1  0.26780000  0.39710000  0.83860000  1.0
  Cu  Cu323  1  0.82152000  0.63031000  0.83753000  1.0
  Cu  Cu324  1  0.81194000  0.63536000  0.12633000  1.0
  Cu  Cu325  1  0.25946000  0.39995000  0.12377000  1.0
  Cu  Cu326  1  0.76636000  0.90296000  0.33902000  1.0
  Cu  Cu327  1  0.32104000  0.13873000  0.33784000  1.0
  Cu  Cu328  1  0.31666000  0.13685000  0.62322000  1.0
  Cu  Cu329  1  0.76418000  0.90205000  0.62718000  1.0
  H  H330  1  0.94782000  0.82830000  0.00518000  1.0
  H  H331  1  0.00920000  0.96714000  0.07439000  1.0
  H  H332  1  0.13676000  0.19934000  0.95737000  1.0
  H  H333  1  0.06984000  0.06190000  0.88805000  1.0
  H  H334  1  0.13546000  0.19949000  0.00547000  1.0
  H  H335  1  0.06000000  0.06367000  0.07451000  1.0
  H  H336  1  0.95232000  0.82733000  0.95711000  1.0
  H  H337  1  0.02286000  0.96438000  0.88799000  1.0
  H  H338  1  0.44160000  0.33738000  0.50583000  1.0
  H  H339  1  0.51424000  0.47278000  0.57540000  1.0
  H  H340  1  0.62510000  0.71024000  0.45878000  1.0
  H  H341  1  0.55828000  0.57338000  0.38916000  1.0
  H  H342  1  0.62778000  0.70892000  0.50689000  1.0
  H  H343  1  0.56496000  0.56934000  0.57563000  1.0
  H  H344  1  0.44176000  0.33795000  0.45773000  1.0
  H  H345  1  0.51104000  0.47593000  0.38890000  1.0
  H  H346  1  0.14910000  0.43465000  0.84563000  1.0
  H  H347  1  0.27584000  0.47186000  0.79115000  1.0
  H  H348  1  0.19510000  0.52468000  0.78166000  1.0
  H  H349  1  0.40168000  0.42758000  0.82812000  1.0
  H  H350  1  0.30462000  0.46984000  0.88650000  1.0
  H  H351  1  0.41338000  0.51211000  0.89479000  1.0
  H  H352  1  0.22186000  0.27913000  0.85258000  1.0
  H  H353  1  0.19704000  0.41336000  0.88791000  1.0
  H  H354  1  0.14012000  0.33319000  0.91329000  1.0
  H  H355  1  0.35322000  0.32077000  0.83717000  1.0
  H  H356  1  0.36190000  0.26265000  0.79750000  1.0
  H  H357  1  0.24182000  0.35363000  0.78220000  1.0
  H  H358  1  0.94452000  0.60268000  0.84457000  1.0
  H  H359  1  0.82162000  0.55819000  0.78910000  1.0
  H  H360  1  0.91052000  0.51586000  0.77887000  1.0
  H  H361  1  0.68758000  0.59201000  0.82772000  1.0
  H  H362  1  0.79258000  0.55207000  0.88365000  1.0
  H  H363  1  0.68732000  0.49956000  0.89130000  1.0
  H  H364  1  0.86706000  0.74905000  0.85157000  1.0
  H  H365  1  0.88834000  0.61449000  0.88764000  1.0
  H  H366  1  0.94472000  0.69430000  0.91334000  1.0
  H  H367  1  0.73612000  0.70729000  0.83784000  1.0
  H  H368  1  0.71712000  0.75856000  0.79704000  1.0
  H  H369  1  0.83616000  0.66762000  0.77990000  1.0
  H  H370  1  0.93334000  0.60630000  0.11451000  1.0
  H  H371  1  0.82842000  0.57795000  0.17750000  1.0
  H  H372  1  0.92020000  0.53857000  0.18566000  1.0
  H  H373  1  0.67578000  0.60161000  0.13345000  1.0
  H  H374  1  0.78904000  0.53856000  0.08970000  1.0
  H  H375  1  0.68490000  0.48307000  0.08276000  1.0
  H  H376  1  0.87902000  0.75001000  0.11544000  1.0
  H  H377  1  0.83000000  0.62469000  0.06723000  1.0
  H  H378  1  0.88260000  0.70471000  0.04044000  1.0
  H  H379  1  0.71736000  0.70379000  0.12869000  1.0
  H  H380  1  0.70798000  0.76258000  0.16807000  1.0
  H  H381  1  0.83960000  0.68324000  0.18137000  1.0
  H  H382  1  0.14018000  0.43657000  0.11716000  1.0
  H  H383  1  0.27562000  0.48642000  0.16637000  1.0
  H  H384  1  0.19764000  0.54315000  0.17400000  1.0
  H  H385  1  0.39070000  0.43584000  0.13675000  1.0
  H  H386  1  0.30158000  0.45646000  0.07161000  1.0
  H  H387  1  0.41132000  0.49642000  0.06417000  1.0
  H  H388  1  0.21478000  0.28107000  0.11040000  1.0
  H  H389  1  0.18618000  0.41413000  0.07517000  1.0
  H  H390  1  0.13042000  0.33323000  0.04998000  1.0
  H  H391  1  0.33420000  0.31561000  0.12542000  1.0
  H  H392  1  0.35246000  0.26799000  0.16740000  1.0
  H  H393  1  0.24584000  0.37134000  0.18320000  1.0
  H  H394  1  0.64706000  0.93935000  0.34535000  1.0
  H  H395  1  0.77678000  0.98067000  0.29249000  1.0
  H  H396  1  0.69640000  0.03404000  0.28320000  1.0
  H  H397  1  0.90140000  0.92801000  0.32990000  1.0
  H  H398  1  0.80320000  0.98351000  0.38398000  1.0
  H  H399  1  0.91200000  0.02629000  0.39182000  1.0
  H  H400  1  0.71322000  0.78511000  0.35358000  1.0
  H  H401  1  0.69966000  0.92318000  0.38839000  1.0
  H  H402  1  0.63776000  0.84635000  0.41410000  1.0
  H  H403  1  0.84462000  0.81992000  0.33818000  1.0
  H  H404  1  0.86002000  0.76933000  0.29665000  1.0
  H  H405  1  0.74848000  0.86836000  0.28109000  1.0
  H  H406  1  0.44178000  0.10686000  0.34673000  1.0
  H  H407  1  0.32690000  0.07401000  0.28732000  1.0
  H  H408  1  0.41606000  0.03178000  0.27753000  1.0
  H  H409  1  0.18798000  0.09547000  0.32633000  1.0
  H  H410  1  0.29020000  0.06590000  0.38570000  1.0
  H  H411  1  0.18532000  0.01272000  0.39323000  1.0
  H  H412  1  0.36228000  0.25733000  0.35239000  1.0
  H  H413  1  0.38958000  0.12411000  0.38791000  1.0
  H  H414  1  0.44328000  0.20485000  0.41377000  1.0
  H  H415  1  0.22906000  0.20895000  0.33729000  1.0
  H  H416  1  0.21676000  0.26797000  0.29840000  1.0
  H  H417  1  0.34456000  0.18594000  0.28197000  1.0
  H  H418  1  0.43578000  0.10020000  0.61699000  1.0
  H  H419  1  0.30058000  0.05156000  0.66647000  1.0
  H  H420  1  0.37886000  0.99534000  0.67460000  1.0
  H  H421  1  0.18502000  0.10355000  0.63593000  1.0
  H  H422  1  0.27468000  0.07592000  0.57204000  1.0
  H  H423  1  0.16490000  0.03582000  0.56483000  1.0
  H  H424  1  0.36540000  0.25557000  0.61007000  1.0
  H  H425  1  0.38660000  0.12099000  0.57393000  1.0
  H  H426  1  0.44470000  0.20076000  0.54884000  1.0
  H  H427  1  0.24302000  0.22246000  0.62461000  1.0
  H  H428  1  0.22608000  0.27089000  0.66656000  1.0
  H  H429  1  0.33070000  0.16586000  0.68234000  1.0
  H  H430  1  0.64292000  0.93114000  0.61524000  1.0
  H  H431  1  0.74762000  0.95964000  0.67829000  1.0
  H  H432  1  0.65592000  0.99926000  0.68630000  1.0
  H  H433  1  0.90008000  0.93714000  0.63461000  1.0
  H  H434  1  0.78690000  0.99684000  0.58931000  1.0
  H  H435  1  0.89092000  0.05211000  0.58191000  1.0
  H  H436  1  0.69180000  0.78889000  0.61707000  1.0
  H  H437  1  0.75364000  0.90925000  0.56755000  1.0
  H  H438  1  0.70112000  0.82876000  0.54112000  1.0
  H  H439  1  0.85936000  0.83469000  0.62918000  1.0
  H  H440  1  0.87002000  0.77568000  0.66831000  1.0
  H  H441  1  0.73756000  0.85365000  0.68240000  1.0
  H  H442  1  0.01588000  0.64497000  0.81217000  1.0
  H  H443  1  0.10548000  0.70533000  0.81700000  1.0
  H  H444  1  0.19486000  0.67480000  0.82265000  1.0
  H  H445  1  0.19526000  0.58345000  0.82300000  1.0
  H  H446  1  0.96152000  0.45986000  0.81304000  1.0
  H  H447  1  0.05112000  0.43011000  0.81463000  1.0
  H  H448  1  0.01438000  0.65649000  0.14090000  1.0
  H  H449  1  0.10316000  0.71446000  0.13094000  1.0
  H  H450  1  0.19126000  0.68183000  0.12526000  1.0
  H  H451  1  0.19124000  0.59085000  0.12994000  1.0
  H  H452  1  0.95944000  0.47284000  0.15170000  1.0
  H  H453  1  0.04810000  0.44178000  0.14943000  1.0
  H  H454  1  0.69528000  0.08846000  0.32654000  1.0
  H  H455  1  0.69600000  0.17983000  0.32937000  1.0
  H  H456  1  0.60750000  0.21216000  0.32453000  1.0
  H  H457  1  0.51766000  0.15354000  0.31726000  1.0
  H  H458  1  0.55018000  0.93795000  0.31257000  1.0
  H  H459  1  0.46128000  0.96895000  0.31121000  1.0
  H  H460  1  0.38510000  0.94703000  0.63025000  1.0
  H  H461  1  0.38506000  0.85608000  0.62538000  1.0
  H  H462  1  0.47308000  0.82335000  0.63111000  1.0
  H  H463  1  0.56178000  0.88116000  0.64133000  1.0
  H  H464  1  0.52810000  0.09590000  0.65004000  1.0
  H  H465  1  0.61674000  0.06479000  0.65246000  1.0
  H  H466  1  0.18986000  0.25904000  0.78244000  1.0
  H  H467  1  0.09868000  0.21591000  0.76582000  1.0
  H  H468  1  0.09088000  0.18157000  0.72299000  1.0
  H  H469  1  0.17430000  0.19055000  0.69642000  1.0
  H  H470  1  0.38046000  0.29965000  0.74936000  1.0
  H  H471  1  0.37232000  0.26597000  0.70689000  1.0
  H  H472  1  0.67586000  0.68034000  0.76398000  1.0
  H  H473  1  0.59562000  0.66693000  0.73542000  1.0
  H  H474  1  0.60512000  0.70538000  0.69344000  1.0
  H  H475  1  0.69486000  0.75705000  0.67962000  1.0
  H  H476  1  0.86976000  0.77207000  0.75917000  1.0
  H  H477  1  0.87954000  0.80998000  0.71756000  1.0
  H  H478  1  0.90484000  0.85037000  0.26472000  1.0
  H  H479  1  0.98508000  0.86372000  0.23611000  1.0
  H  H480  1  0.97444000  0.82814000  0.19355000  1.0
  H  H481  1  0.88360000  0.77943000  0.17919000  1.0
  H  H482  1  0.70926000  0.76374000  0.25901000  1.0
  H  H483  1  0.69842000  0.72829000  0.21691000  1.0
  H  H484  1  0.39116000  0.28111000  0.28286000  1.0
  H  H485  1  0.48090000  0.32733000  0.26612000  1.0
  H  H486  1  0.48664000  0.36241000  0.22345000  1.0
  H  H487  1  0.40258000  0.35109000  0.19714000  1.0
  H  H488  1  0.20046000  0.23466000  0.25019000  1.0
  H  H489  1  0.20658000  0.26943000  0.20794000  1.0
  H  H490  1  0.66244000  0.44160000  0.84961000  1.0
  H  H491  1  0.61936000  0.35065000  0.85030000  1.0
  H  H492  1  0.51596000  0.32190000  0.85556000  1.0
  H  H493  1  0.45484000  0.38365000  0.85977000  1.0
  H  H494  1  0.59066000  0.59698000  0.85706000  1.0
  H  H495  1  0.48750000  0.56903000  0.85861000  1.0
  H  H496  1  0.44670000  0.38213000  0.11217000  1.0
  H  H497  1  0.50564000  0.32336000  0.12576000  1.0
  H  H498  1  0.60786000  0.35408000  0.13368000  1.0
  H  H499  1  0.65202000  0.44385000  0.12754000  1.0
  H  H500  1  0.48180000  0.56500000  0.09683000  1.0
  H  H501  1  0.58458000  0.59324000  0.10048000  1.0
  H  H502  1  0.95448000  0.89123000  0.36522000  1.0
  H  H503  1  0.01608000  0.82935000  0.36620000  1.0
  H  H504  1  0.11960000  0.85717000  0.36098000  1.0
  H  H505  1  0.16236000  0.94735000  0.35520000  1.0
  H  H506  1  0.98642000  0.07475000  0.35314000  1.0
  H  H507  1  0.08956000  0.10286000  0.35177000  1.0
  H  H508  1  0.92398000  0.09521000  0.62550000  1.0
  H  H509  1  0.96820000  0.18548000  0.62945000  1.0
  H  H510  1  0.07046000  0.21523000  0.62124000  1.0
  H  H511  1  0.12932000  0.15501000  0.60954000  1.0
  H  H512  1  0.99120000  0.94307000  0.60260000  1.0
  H  H513  1  0.09400000  0.97081000  0.59878000  1.0
  H  H514  1  0.06548000  0.25008000  0.89443000  1.0
  H  H515  1  0.19148000  0.13037000  0.91592000  1.0
  H  H516  1  0.02140000  0.77545000  0.89478000  1.0
  H  H517  1  0.89864000  0.89873000  0.91488000  1.0
  H  H518  1  0.83976000  0.81951000  0.06480000  1.0
  H  H519  1  0.04756000  0.86144000  0.04982000  1.0
  H  H520  1  0.05806000  0.24941000  0.06793000  1.0
  H  H521  1  0.18766000  0.13229000  0.04746000  1.0
  H  H522  1  0.72034000  0.72325000  0.39386000  1.0
  H  H523  1  0.51712000  0.67764000  0.41781000  1.0
  H  H524  1  0.51688000  0.28838000  0.39533000  1.0
  H  H525  1  0.38814000  0.40622000  0.41592000  1.0
  H  H526  1  0.35424000  0.31757000  0.57069000  1.0
  H  H527  1  0.55620000  0.37326000  0.54615000  1.0
  H  H528  1  0.73618000  0.71679000  0.56603000  1.0
  H  H529  1  0.52820000  0.67522000  0.55158000  1.0
  N  N530  1  0.00600000  0.94132000  0.98120000  1.0
  N  N531  1  0.07936000  0.08611000  0.98133000  1.0
  N  N532  1  0.04016000  0.01421000  0.01782000  1.0
  N  N533  1  0.04452000  0.01340000  0.94470000  1.0
  N  N534  1  0.49798000  0.45108000  0.48209000  1.0
  N  N535  1  0.57088000  0.59601000  0.48248000  1.0
  N  N536  1  0.53566000  0.52277000  0.51886000  1.0
  N  N537  1  0.53400000  0.52412000  0.44571000  1.0
  N  N538  1  0.15558000  0.48674000  0.81462000  1.0
  N  N539  1  0.22266000  0.44182000  0.82213000  1.0
  N  N540  1  0.33656000  0.43920000  0.85357000  1.0
  N  N541  1  0.42760000  0.47400000  0.86056000  1.0
  N  N542  1  0.22144000  0.35605000  0.86438000  1.0
  N  N543  1  0.17388000  0.28886000  0.88548000  1.0
  N  N544  1  0.29176000  0.34921000  0.81498000  1.0
  N  N545  1  0.29804000  0.30002000  0.78198000  1.0
  N  N546  1  0.94620000  0.55572000  0.81203000  1.0
  N  N547  1  0.87148000  0.59064000  0.82061000  1.0
  N  N548  1  0.75582000  0.58310000  0.85206000  1.0
  N  N549  1  0.66794000  0.53844000  0.85806000  1.0
  N  N550  1  0.86540000  0.67202000  0.86381000  1.0
  N  N551  1  0.91286000  0.73895000  0.88510000  1.0
  N  N552  1  0.79318000  0.67626000  0.81423000  1.0
  N  N553  1  0.77688000  0.71835000  0.78008000  1.0
  N  N554  1  0.94534000  0.56880000  0.14913000  1.0
  N  N555  1  0.86824000  0.60137000  0.14234000  1.0
  N  N556  1  0.74758000  0.58279000  0.11451000  1.0
  N  N557  1  0.66062000  0.53566000  0.10934000  1.0
  N  N558  1  0.84730000  0.67695000  0.09819000  1.0
  N  N559  1  0.89140000  0.74361000  0.07595000  1.0
  N  N560  1  0.78452000  0.68158000  0.14978000  1.0
  N  N561  1  0.77778000  0.73151000  0.18245000  1.0
  N  N562  1  0.15248000  0.49699000  0.14446000  1.0
  N  N563  1  0.21712000  0.44870000  0.13868000  1.0
  N  N564  1  0.32912000  0.43828000  0.10808000  1.0
  N  N565  1  0.42090000  0.47093000  0.10183000  1.0
  N  N566  1  0.21210000  0.35760000  0.09869000  1.0
  N  N567  1  0.16560000  0.28976000  0.07771000  1.0
  N  N568  1  0.28310000  0.35419000  0.14863000  1.0
  N  N569  1  0.29900000  0.31520000  0.18379000  1.0
  N  N570  1  0.65502000  0.99343000  0.31514000  1.0
  N  N571  1  0.72186000  0.94820000  0.32251000  1.0
  N  N572  1  0.83574000  0.94519000  0.35362000  1.0
  N  N573  1  0.92688000  0.98062000  0.36022000  1.0
  N  N574  1  0.71876000  0.86333000  0.36498000  1.0
  N  N575  1  0.66528000  0.79878000  0.38589000  1.0
  N  N576  1  0.78990000  0.85517000  0.31521000  1.0
  N  N577  1  0.80330000  0.81369000  0.28049000  1.0
  N  N578  1  0.44724000  0.06515000  0.31277000  1.0
  N  N579  1  0.37220000  0.09995000  0.32099000  1.0
  N  N580  1  0.25508000  0.09118000  0.35219000  1.0
  N  N581  1  0.16734000  0.04575000  0.35810000  1.0
  N  N582  1  0.36398000  0.18070000  0.36431000  1.0
  N  N583  1  0.40906000  0.24842000  0.38578000  1.0
  N  N584  1  0.29330000  0.18557000  0.31476000  1.0
  N  N585  1  0.28406000  0.23566000  0.28240000  1.0
  N  N586  1  0.42380000  0.04072000  0.64477000  1.0
  N  N587  1  0.35888000  0.08849000  0.63852000  1.0
  N  N588  1  0.24684000  0.09812000  0.60775000  1.0
  N  N589  1  0.15502000  0.06527000  0.60170000  1.0
  N  N590  1  0.36462000  0.17844000  0.59808000  1.0
  N  N591  1  0.41466000  0.24543000  0.57765000  1.0
  N  N592  1  0.29350000  0.18325000  0.64784000  1.0
  N  N593  1  0.27862000  0.22284000  0.68294000  1.0
  N  N594  1  0.63084000  0.96882000  0.64980000  1.0
  N  N595  1  0.70784000  0.93604000  0.64315000  1.0
  N  N596  1  0.82828000  0.95455000  0.61509000  1.0
  N  N597  1  0.91518000  0.00158000  0.60955000  1.0
  N  N598  1  0.72900000  0.85995000  0.59915000  1.0
  N  N599  1  0.68494000  0.79288000  0.57718000  1.0
  N  N600  1  0.79232000  0.85619000  0.65062000  1.0
  N  N601  1  0.80014000  0.80609000  0.68310000  1.0
  O  O602  1  0.25640000  0.19741000  0.87418000  1.0
  O  O603  1  0.27008000  0.23974000  0.91098000  1.0
  O  O604  1  0.00350000  0.18483000  0.93675000  1.0
  O  O605  1  0.98490000  0.14016000  0.90078000  1.0
  O  O606  1  0.83438000  0.83290000  0.87248000  1.0
  O  O607  1  0.81740000  0.79091000  0.90927000  1.0
  O  O608  1  0.08288000  0.83913000  0.93754000  1.0
  O  O609  1  0.10444000  0.88415000  0.90184000  1.0
  O  O610  1  0.02718000  0.77993000  0.09424000  1.0
  O  O611  1  0.01858000  0.74425000  0.05577000  1.0
  O  O612  1  0.85370000  0.89558000  0.02166000  1.0
  O  O613  1  0.87316000  0.94140000  0.05725000  1.0
  O  O614  1  0.26410000  0.24274000  0.05294000  1.0
  O  O615  1  0.25006000  0.19961000  0.08952000  1.0
  O  O616  1  0.97924000  0.13954000  0.06081000  1.0
  O  O617  1  0.99952000  0.18369000  0.02479000  1.0
  O  O618  1  0.53306000  0.78944000  0.41252000  1.0
  O  O619  1  0.53186000  0.76271000  0.37246000  1.0
  O  O620  1  0.69124000  0.60191000  0.40054000  1.0
  O  O621  1  0.71704000  0.64562000  0.43628000  1.0
  O  O622  1  0.32556000  0.33866000  0.37370000  1.0
  O  O623  1  0.31106000  0.29635000  0.41048000  1.0
  O  O624  1  0.57648000  0.35383000  0.43809000  1.0
  O  O625  1  0.59598000  0.39878000  0.40224000  1.0
  O  O626  1  0.54710000  0.28746000  0.59100000  1.0
  O  O627  1  0.54714000  0.26199000  0.55078000  1.0
  O  O628  1  0.35136000  0.39570000  0.52932000  1.0
  O  O629  1  0.37734000  0.43969000  0.56496000  1.0
  O  O630  1  0.54888000  0.75649000  0.59599000  1.0
  O  O631  1  0.55798000  0.79259000  0.55761000  1.0
  O  O632  1  0.72184000  0.64073000  0.52301000  1.0
  O  O633  1  0.70218000  0.59479000  0.55856000  1.0
