# generated using pymatgen
data_Zn3HC10N10O11
_symmetry_space_group_name_H-M   'P 1'
_cell_length_a   15.35055000
_cell_length_b   30.67890000
_cell_length_c   34.89840000
_cell_angle_alpha   90.00000000
_cell_angle_beta   90.00000000
_cell_angle_gamma   90.00000000
_symmetry_Int_Tables_number   1
_chemical_formula_structural   Zn3HC10N10O11
_chemical_formula_sum   'Zn24 H8 C80 N80 O88'
_cell_volume   16434.98229420
_cell_formula_units_Z   8
loop_
 _symmetry_equiv_pos_site_id
 _symmetry_equiv_pos_as_xyz
  1  'x, y, z'
loop_
 _atom_site_type_symbol
 _atom_site_label
 _atom_site_symmetry_multiplicity
 _atom_site_fract_x
 _atom_site_fract_y
 _atom_site_fract_z
 _atom_site_occupancy
  C  C0  1  0.48872000  0.30616000  0.32304000  1.0
  C  C1  1  0.23852000  0.27776000  0.32213000  1.0
  C  C2  1  0.31880000  0.42683000  0.38897000  1.0
  C  C3  1  0.41352000  0.27776000  0.45958000  1.0
  C  C4  1  0.15656000  0.30994000  0.46046000  1.0
  C  C5  1  0.98368000  0.72640000  0.71047000  1.0
  C  C6  1  0.73476000  0.75705000  0.71312000  1.0
  C  C7  1  0.81538000  0.60687000  0.64547000  1.0
  C  C8  1  0.93236000  0.75639000  0.58046000  1.0
  C  C9  1  0.71446000  0.68303000  0.54275000  1.0
  C  C10  1  0.58676000  0.30601000  0.71293000  1.0
  C  C11  1  0.83656000  0.27697000  0.71473000  1.0
  C  C12  1  0.75166000  0.42628000  0.64658000  1.0
  C  C13  1  0.63580000  0.27628000  0.58231000  1.0
  C  C14  1  0.85332000  0.35012000  0.54465000  1.0
  C  C15  1  0.07892000  0.72795000  0.32046000  1.0
  C  C16  1  0.32968000  0.75521000  0.32181000  1.0
  C  C17  1  0.24864000  0.60663000  0.38806000  1.0
  C  C18  1  0.15516000  0.75571000  0.45815000  1.0
  C  C19  1  0.41234000  0.72438000  0.45805000  1.0
  C  C20  1  0.48368000  0.80708000  0.82225000  1.0
  C  C21  1  0.23516000  0.77606000  0.81944000  1.0
  C  C22  1  0.31128000  0.92603000  0.88750000  1.0
  C  C23  1  0.43176000  0.77704000  0.95231000  1.0
  C  C24  1  0.21312000  0.84973000  0.98981000  1.0
  C  C25  1  0.98864000  0.22821000  0.21185000  1.0
  C  C26  1  0.73808000  0.25605000  0.21315000  1.0
  C  C27  1  0.81428000  0.10847000  0.14370000  1.0
  C  C28  1  0.91824000  0.25827000  0.07729000  1.0
  C  C29  1  0.63264000  0.18772000  0.08715000  1.0
  C  C30  1  0.57884000  0.80708000  0.21226000  1.0
  C  C31  1  0.82974000  0.77994000  0.21086000  1.0
  C  C32  1  0.74608000  0.92843000  0.14434000  1.0
  C  C33  1  0.65398000  0.77876000  0.07471000  1.0
  C  C34  1  0.91052000  0.81044000  0.07486000  1.0
  C  C35  1  0.08706000  0.22723000  0.82482000  1.0
  C  C36  1  0.33632000  0.25604000  0.82233000  1.0
  C  C37  1  0.23828000  0.10563000  0.88789000  1.0
  C  C38  1  0.13360000  0.25748000  0.95364000  1.0
  C  C39  1  0.38184000  0.21612000  0.97110000  1.0
  C  C40  1  0.30350000  0.47377000  0.38940000  1.0
  C  C41  1  0.26402000  0.55971000  0.38896000  1.0
  C  C42  1  0.80066000  0.55984000  0.64519000  1.0
  C  C43  1  0.76620000  0.47332000  0.64576000  1.0
  C  C44  1  0.25228000  0.05856000  0.88818000  1.0
  C  C45  1  0.29302000  0.97273000  0.88814000  1.0
  C  C46  1  0.79804000  0.06160000  0.14304000  1.0
  C  C47  1  0.76022000  0.97546000  0.14345000  1.0
  C  C48  1  0.07472000  0.31867000  0.48073000  1.0
  C  C49  1  0.93132000  0.33899000  0.52247000  1.0
  C  C50  1  0.49416000  0.71545000  0.47835000  1.0
  C  C51  1  0.63684000  0.69451000  0.52039000  1.0
  C  C52  1  0.99524000  0.77275000  0.55239000  1.0
  C  C53  1  0.10550000  0.77125000  0.49142000  1.0
  C  C54  1  0.46318000  0.26201000  0.49287000  1.0
  C  C55  1  0.57302000  0.25987000  0.55410000  1.0
  C  C56  1  0.99230000  0.81889000  0.05441000  1.0
  C  C57  1  0.13530000  0.83875000  0.01221000  1.0
  C  C58  1  0.56438000  0.19719000  0.05875000  1.0
  C  C59  1  0.44602000  0.20984000  0.00194000  1.0
  C  C60  1  0.96722000  0.27526000  0.04446000  1.0
  C  C61  1  0.07466000  0.27570000  0.98246000  1.0
  C  C62  1  0.60454000  0.76287000  0.04154000  1.0
  C  C63  1  0.49450000  0.76083000  0.98049000  1.0
  C  C64  1  0.17664000  0.26133000  0.29333000  1.0
  C  C65  1  0.06004000  0.23709000  0.23880000  1.0
  C  C66  1  0.67376000  0.77387000  0.74200000  1.0
  C  C67  1  0.55622000  0.79851000  0.79591000  1.0
  C  C68  1  0.01540000  0.23632000  0.79801000  1.0
  C  C69  1  0.89856000  0.26068000  0.74359000  1.0
  C  C70  1  0.39232000  0.77186000  0.29355000  1.0
  C  C71  1  0.50838000  0.79733000  0.23933000  1.0
  C  C72  1  0.05630000  0.73488000  0.73675000  1.0
  C  C73  1  0.17424000  0.75928000  0.79054000  1.0
  C  C74  1  0.67618000  0.27227000  0.24185000  1.0
  C  C75  1  0.55990000  0.29690000  0.29623000  1.0
  C  C76  1  0.89254000  0.76333000  0.23910000  1.0
  C  C77  1  0.00850000  0.73781000  0.29335000  1.0
  C  C78  1  0.39766000  0.27258000  0.79351000  1.0
  C  C79  1  0.51486000  0.29717000  0.73949000  1.0
  H  H80  1  0.24770000  0.26406000  0.44864000  1.0
  H  H81  1  0.82702000  0.64768000  0.54196000  1.0
  H  H82  1  0.74024000  0.38505000  0.54364000  1.0
  H  H83  1  0.32026000  0.77012000  0.44726000  1.0
  H  H84  1  0.32590000  0.88494000  0.99048000  1.0
  H  H85  1  0.66486000  0.15069000  0.13329000  1.0
  H  H86  1  0.81916000  0.76479000  0.08702000  1.0
  H  H87  1  0.33714000  0.25790000  0.93030000  1.0
  N  N88  1  0.29240000  0.49531000  0.35585000  1.0
  N  N89  1  0.29412000  0.49585000  0.42286000  1.0
  N  N90  1  0.27502000  0.53823000  0.42264000  1.0
  N  N91  1  0.27354000  0.53757000  0.35562000  1.0
  N  N92  1  0.79186000  0.53810000  0.67879000  1.0
  N  N93  1  0.79166000  0.53763000  0.61177000  1.0
  N  N94  1  0.77474000  0.49502000  0.61206000  1.0
  N  N95  1  0.77550000  0.49556000  0.67908000  1.0
  N  N96  1  0.26766000  0.03733000  0.85479000  1.0
  N  N97  1  0.25774000  0.03619000  0.92166000  1.0
  N  N98  1  0.27768000  0.99391000  0.92164000  1.0
  N  N99  1  0.28690000  0.99508000  0.85474000  1.0
  N  N100  1  0.78612000  0.03982000  0.10957000  1.0
  N  N101  1  0.79020000  0.03967000  0.17657000  1.0
  N  N102  1  0.77206000  0.99734000  0.17677000  1.0
  N  N103  1  0.76782000  0.99734000  0.10978000  1.0
  N  N104  1  0.02718000  0.35471000  0.47234000  1.0
  N  N105  1  0.04928000  0.29293000  0.51036000  1.0
  N  N106  1  0.97890000  0.30296000  0.53094000  1.0
  N  N107  1  0.95628000  0.36444000  0.49260000  1.0
  N  N108  1  0.54190000  0.67955000  0.46971000  1.0
  N  N109  1  0.51906000  0.74072000  0.50838000  1.0
  N  N110  1  0.58908000  0.73040000  0.52909000  1.0
  N  N111  1  0.61246000  0.66953000  0.49012000  1.0
  N  N112  1  0.07950000  0.76056000  0.55671000  1.0
  N  N113  1  0.96766000  0.78554000  0.51711000  1.0
  N  N114  1  0.02198000  0.78511000  0.48719000  1.0
  N  N115  1  0.13344000  0.75978000  0.52689000  1.0
  N  N116  1  0.43500000  0.27316000  0.52839000  1.0
  N  N117  1  0.54678000  0.24820000  0.48871000  1.0
  N  N118  1  0.60084000  0.24747000  0.51874000  1.0
  N  N119  1  0.48868000  0.27207000  0.55832000  1.0
  N  N120  1  0.03998000  0.85498000  0.06244000  1.0
  N  N121  1  0.01740000  0.79287000  0.02491000  1.0
  N  N122  1  0.08758000  0.80266000  0.00410000  1.0
  N  N123  1  0.11068000  0.86448000  0.04195000  1.0
  N  N124  1  0.57342000  0.23079000  0.03367000  1.0
  N  N125  1  0.49494000  0.17015000  0.05496000  1.0
  N  N126  1  0.43692000  0.17634000  0.02707000  1.0
  N  N127  1  0.51494000  0.23721000  0.00596000  1.0
  N  N128  1  0.05294000  0.28533000  0.04838000  1.0
  N  N129  1  0.93592000  0.26704000  0.00883000  1.0
  N  N130  1  0.98844000  0.26731000  0.97850000  1.0
  N  N131  1  0.10572000  0.28534000  0.01795000  1.0
  N  N132  1  0.52094000  0.74913000  0.04581000  1.0
  N  N133  1  0.63264000  0.77394000  0.00600000  1.0
  N  N134  1  0.57884000  0.77290000  0.97613000  1.0
  N  N135  1  0.46674000  0.74844000  0.01585000  1.0
  N  N136  1  0.13778000  0.22156000  0.29516000  1.0
  N  N137  1  0.15722000  0.28798000  0.26351000  1.0
  N  N138  1  0.10020000  0.27623000  0.23691000  1.0
  N  N139  1  0.07982000  0.20978000  0.26840000  1.0
  N  N140  1  0.63382000  0.81333000  0.73944000  1.0
  N  N141  1  0.65516000  0.74778000  0.77226000  1.0
  N  N142  1  0.59764000  0.75974000  0.79858000  1.0
  N  N143  1  0.57540000  0.82532000  0.76592000  1.0
  N  N144  1  0.97656000  0.27584000  0.79954000  1.0
  N  N145  1  0.99416000  0.20872000  0.76883000  1.0
  N  N146  1  0.93610000  0.22057000  0.74214000  1.0
  N  N147  1  0.91940000  0.28766000  0.77299000  1.0
  N  N148  1  0.42946000  0.81203000  0.29548000  1.0
  N  N149  1  0.41324000  0.74537000  0.26385000  1.0
  N  N150  1  0.47004000  0.75773000  0.23738000  1.0
  N  N151  1  0.48724000  0.82443000  0.26887000  1.0
  N  N152  1  0.07532000  0.70807000  0.76675000  1.0
  N  N153  1  0.09814000  0.77352000  0.73398000  1.0
  N  N154  1  0.15586000  0.78537000  0.76025000  1.0
  N  N155  1  0.13390000  0.71994000  0.79318000  1.0
  N  N156  1  0.65574000  0.24546000  0.27140000  1.0
  N  N157  1  0.63856000  0.31233000  0.24021000  1.0
  N  N158  1  0.58070000  0.32432000  0.26690000  1.0
  N  N159  1  0.59882000  0.25742000  0.29796000  1.0
  N  N160  1  0.91390000  0.78993000  0.26867000  1.0
  N  N161  1  0.92922000  0.72304000  0.23732000  1.0
  N  N162  1  0.98694000  0.71062000  0.26394000  1.0
  N  N163  1  0.97064000  0.77753000  0.29515000  1.0
  N  N164  1  0.41690000  0.24621000  0.76352000  1.0
  N  N165  1  0.43684000  0.31224000  0.79576000  1.0
  N  N166  1  0.49510000  0.32421000  0.76923000  1.0
  N  N167  1  0.47426000  0.25815000  0.73714000  1.0
  O  O168  1  0.40468000  0.25351000  0.42787000  1.0
  O  O169  1  0.38208000  0.31800000  0.46266000  1.0
  O  O170  1  0.19592000  0.34228000  0.44261000  1.0
  O  O171  1  0.19266000  0.27124000  0.46299000  1.0
  O  O172  1  0.31382000  0.40671000  0.35540000  1.0
  O  O173  1  0.33120000  0.40592000  0.42185000  1.0
  O  O174  1  0.33944000  0.32465000  0.38660000  1.0
  O  O175  1  0.46516000  0.27490000  0.34691000  1.0
  O  O176  1  0.44350000  0.34247000  0.32011000  1.0
  O  O177  1  0.25854000  0.31959000  0.31836000  1.0
  O  O178  1  0.27622000  0.25224000  0.34854000  1.0
  O  O179  1  0.90060000  0.78211000  0.60809000  1.0
  O  O180  1  0.91688000  0.71384000  0.57891000  1.0
  O  O181  1  0.72708000  0.69971000  0.57715000  1.0
  O  O182  1  0.77198000  0.65607000  0.52785000  1.0
  O  O183  1  0.80652000  0.62752000  0.67861000  1.0
  O  O184  1  0.83396000  0.62711000  0.61281000  1.0
  O  O185  1  0.82988000  0.71003000  0.64695000  1.0
  O  O186  1  0.95962000  0.75815000  0.68734000  1.0
  O  O187  1  0.93778000  0.69035000  0.71309000  1.0
  O  O188  1  0.75362000  0.71499000  0.71651000  1.0
  O  O189  1  0.77232000  0.78253000  0.68670000  1.0
  O  O190  1  0.66804000  0.25066000  0.60997000  1.0
  O  O191  1  0.65106000  0.31883000  0.58068000  1.0
  O  O192  1  0.84064000  0.33333333  0.57897000  1.0
  O  O193  1  0.79562000  0.37692000  0.52968000  1.0
  O  O194  1  0.76100000  0.40598000  0.67988000  1.0
  O  O195  1  0.73310000  0.40568000  0.61413000  1.0
  O  O196  1  0.73820000  0.32307000  0.64876000  1.0
  O  O197  1  0.61090000  0.27434000  0.68972000  1.0
  O  O198  1  0.63190000  0.34234000  0.71532000  1.0
  O  O199  1  0.81692000  0.31896000  0.71792000  1.0
  O  O200  1  0.79884000  0.25112000  0.68859000  1.0
  O  O201  1  0.16190000  0.77968000  0.42621000  1.0
  O  O202  1  0.18804000  0.71579000  0.46135000  1.0
  O  O203  1  0.37362000  0.69237000  0.43945000  1.0
  O  O204  1  0.37528000  0.76275000  0.46156000  1.0
  O  O205  1  0.25164000  0.62631000  0.35421000  1.0
  O  O206  1  0.23824000  0.62796000  0.42087000  1.0
  O  O207  1  0.22494000  0.70839000  0.38497000  1.0
  O  O208  1  0.10208000  0.75889000  0.34475000  1.0
  O  O209  1  0.12362000  0.69142000  0.31762000  1.0
  O  O210  1  0.30936000  0.71345000  0.31765000  1.0
  O  O211  1  0.29120000  0.78069000  0.34796000  1.0
  O  O212  1  0.40060000  0.75124000  0.92460000  1.0
  O  O213  1  0.41566000  0.81954000  0.95389000  1.0
  O  O214  1  0.22572000  0.83270000  0.95554000  1.0
  O  O215  1  0.27064000  0.87680000  0.00453000  1.0
  O  O216  1  0.30462000  0.90557000  0.85417000  1.0
  O  O217  1  0.33014000  0.90581000  0.92012000  1.0
  O  O218  1  0.32940000  0.82310000  0.88570000  1.0
  O  O219  1  0.45954000  0.77527000  0.84530000  1.0
  O  O220  1  0.43788000  0.84319000  0.81973000  1.0
  O  O221  1  0.25400000  0.81811000  0.81605000  1.0
  O  O222  1  0.27250000  0.75060000  0.84593000  1.0
  O  O223  1  0.90066000  0.28308000  0.10790000  1.0
  O  O224  1  0.89570000  0.21656000  0.07485000  1.0
  O  O225  1  0.70900000  0.20696000  0.08384000  1.0
  O  O226  1  0.61938000  0.15761000  0.11331000  1.0
  O  O227  1  0.81482000  0.12782000  0.17771000  1.0
  O  O228  1  0.82146000  0.13006000  0.11080000  1.0
  O  O229  1  0.83814000  0.21082000  0.14798000  1.0
  O  O230  1  0.96506000  0.25976000  0.18826000  1.0
  O  O231  1  0.94338000  0.19187000  0.21432000  1.0
  O  O232  1  0.75792000  0.21410000  0.21634000  1.0
  O  O233  1  0.77590000  0.28209000  0.18726000  1.0
  O  O234  1  0.66144000  0.75491000  0.10668000  1.0
  O  O235  1  0.68598000  0.81885000  0.07138000  1.0
  O  O236  1  0.87134000  0.84298000  0.09253000  1.0
  O  O237  1  0.87412000  0.77180000  0.07253000  1.0
  O  O238  1  0.75060000  0.90874000  0.17815000  1.0
  O  O239  1  0.73520000  0.90705000  0.11158000  1.0
  O  O240  1  0.72458000  0.82650000  0.14762000  1.0
  O  O241  1  0.60192000  0.77608000  0.18800000  1.0
  O  O242  1  0.62362000  0.84358000  0.21505000  1.0
  O  O243  1  0.80952000  0.82173000  0.21489000  1.0
  O  O244  1  0.79104000  0.75436000  0.18484000  1.0
  O  O245  1  0.17080000  0.28254000  0.92691000  1.0
  O  O246  1  0.14252000  0.21444000  0.95458000  1.0
  O  O247  1  0.32496000  0.18492000  0.96421000  1.0
  O  O248  1  0.38080000  0.25271000  0.95146000  1.0
  O  O249  1  0.25930000  0.12703000  0.85625000  1.0
  O  O250  1  0.21120000  0.12540000  0.91961000  1.0
  O  O251  1  0.24322000  0.20925000  0.88933000  1.0
  O  O252  1  0.11208000  0.25865000  0.84801000  1.0
  O  O253  1  0.13168000  0.19084000  0.82256000  1.0
  O  O254  1  0.31646000  0.21409000  0.81894000  1.0
  O  O255  1  0.29946000  0.28171000  0.84878000  1.0
  Zn  Zn256  1  0.31258000  0.34700000  0.42861000  1.0
  Zn  Zn257  1  0.33902000  0.34964000  0.34502000  1.0
  Zn  Zn258  1  0.36948000  0.27383000  0.37866000  1.0
  Zn  Zn259  1  0.82796000  0.68669000  0.60377000  1.0
  Zn  Zn260  1  0.83214000  0.68454000  0.68873000  1.0
  Zn  Zn261  1  0.86338000  0.76036000  0.65612000  1.0
  Zn  Zn262  1  0.73970000  0.34615000  0.60548000  1.0
  Zn  Zn263  1  0.73682000  0.34880000  0.69043000  1.0
  Zn  Zn264  1  0.70636000  0.27253000  0.65806000  1.0
  Zn  Zn265  1  0.25610000  0.68693000  0.42679000  1.0
  Zn  Zn266  1  0.22712000  0.68351000  0.34342000  1.0
  Zn  Zn267  1  0.19674000  0.75936000  0.37711000  1.0
  Zn  Zn268  1  0.32634000  0.84621000  0.92895000  1.0
  Zn  Zn269  1  0.33188000  0.84872000  0.84397000  1.0
  Zn  Zn270  1  0.36334000  0.77288000  0.87653000  1.0
  Zn  Zn271  1  0.81530000  0.19008000  0.10490000  1.0
  Zn  Zn272  1  0.83886000  0.18482000  0.18914000  1.0
  Zn  Zn273  1  0.86848000  0.26134000  0.15684000  1.0
  Zn  Zn274  1  0.75412000  0.84812000  0.10565000  1.0
  Zn  Zn275  1  0.72690000  0.85149000  0.18912000  1.0
  Zn  Zn276  1  0.69648000  0.77553000  0.15566000  1.0
  Zn  Zn277  1  0.22946000  0.18365000  0.93143000  1.0
  Zn  Zn278  1  0.23732000  0.18435000  0.84694000  1.0
  Zn  Zn279  1  0.20852000  0.25983000  0.87942000  1.0
