# generated using pymatgen
data_NiH20(C2N)12
_symmetry_space_group_name_H-M   'P 1'
_cell_length_a   21.58655000
_cell_length_b   39.90560000
_cell_length_c   40.69676582
_cell_angle_alpha   61.79153750
_cell_angle_beta   78.45646711
_cell_angle_gamma   84.25800000
_symmetry_Int_Tables_number   1
_chemical_formula_structural   NiH20(C2N)12
_chemical_formula_sum   'Ni6 H120 C144 N72'
_cell_volume   30268.07562106
_cell_formula_units_Z   6
loop_
 _symmetry_equiv_pos_site_id
 _symmetry_equiv_pos_as_xyz
  1  'x, y, z'
loop_
 _atom_site_type_symbol
 _atom_site_label
 _atom_site_symmetry_multiplicity
 _atom_site_fract_x
 _atom_site_fract_y
 _atom_site_fract_z
 _atom_site_occupancy
  C  C0  1  0.14518000  0.53084500  0.93657000  1.0
  C  C1  1  0.19578000  0.54826000  0.93915000  1.0
  C  C2  1  0.46918000  0.44596500  0.93429000  1.0
  C  C3  1  0.40900000  0.45055000  0.95234000  1.0
  C  C4  1  0.36572000  0.47549000  0.93071000  1.0
  C  C5  1  0.08010000  0.53597000  0.95356000  1.0
  C  C6  1  0.52130000  0.42923500  0.95584500  1.0
  C  C7  1  0.25582000  0.54729500  0.91901000  1.0
  C  C8  1  0.21710000  0.51240000  0.89402000  1.0
  C  C9  1  0.15662000  0.51191000  0.91451000  1.0
  C  C10  1  0.48206000  0.46280500  0.89480000  1.0
  C  C11  1  0.43754000  0.48746000  0.87420000  1.0
  C  C12  1  0.31726000  0.49056000  0.83792000  1.0
  C  C13  1  0.30314000  0.48087000  0.81138000  1.0
  C  C14  1  0.30322000  0.50883000  0.77384000  1.0
  C  C15  1  0.32070000  0.54576000  0.76381500  1.0
  C  C16  1  0.33634000  0.55390000  0.79091000  1.0
  C  C17  1  0.26000000  0.60175000  0.82604000  1.0
  C  C18  1  0.24458000  0.64008500  0.80534500  1.0
  C  C19  1  0.28918000  0.66797500  0.79550000  1.0
  C  C20  1  0.34682000  0.65704000  0.80838000  1.0
  C  C21  1  0.36020000  0.61861000  0.82908000  1.0
  C  C22  1  0.27740000  0.70851500  0.77140000  1.0
  C  C23  1  0.86302000  0.10322000  0.42305000  1.0
  C  C24  1  0.92332000  0.08737000  0.42732000  1.0
  C  C25  1  0.94360000  0.05926000  0.41635000  1.0
  C  C26  1  0.90314000  0.04787000  0.40070000  1.0
  C  C27  1  0.84342000  0.06489000  0.39633000  1.0
  C  C28  1  0.58818000  0.06063000  0.46926000  1.0
  C  C29  1  0.60646000  0.02286000  0.49036000  1.0
  C  C30  1  0.67122000  0.01390000  0.48732000  1.0
  C  C31  1  0.71536000  0.04173000  0.46128500  1.0
  C  C32  1  0.63356000  0.08745000  0.44343000  1.0
  C  C33  1  0.74058000  0.13439500  0.45478000  1.0
  C  C34  1  0.73822000  0.15996000  0.46957000  1.0
  C  C35  1  0.73128000  0.19884000  0.44596000  1.0
  C  C36  1  0.72106000  0.21088000  0.40920000  1.0
  C  C37  1  0.72186000  0.18434000  0.39601000  1.0
  C  C38  1  0.83380000  0.17398000  0.34464000  1.0
  C  C39  1  0.85510000  0.20414000  0.30913000  1.0
  C  C40  1  0.82904000  0.20995000  0.27798000  1.0
  C  C41  1  0.78634000  0.18337000  0.28241000  1.0
  C  C42  1  0.76610000  0.15377000  0.31835000  1.0
  C  C43  1  0.36444000  0.54737000  0.52692000  1.0
  C  C44  1  0.42328000  0.53971000  0.50986000  1.0
  C  C45  1  0.42800000  0.53613500  0.47685000  1.0
  C  C46  1  0.37336000  0.54084000  0.46147000  1.0
  C  C47  1  0.31534000  0.54763000  0.47986000  1.0
  C  C48  1  0.08684000  0.49645000  0.55105000  1.0
  C  C49  1  0.11306000  0.46536000  0.54607000  1.0
  C  C50  1  0.17882000  0.45983000  0.54286000  1.0
  C  C51  1  0.21710000  0.48725500  0.54117500  1.0
  C  C52  1  0.12642000  0.52306000  0.54904000  1.0
  C  C53  1  0.27118000  0.50862000  0.60081000  1.0
  C  C54  1  0.27634000  0.49416000  0.63886000  1.0
  C  C55  1  0.24800000  0.51381000  0.65875000  1.0
  C  C56  1  0.21156000  0.54617000  0.64091000  1.0
  C  C57  1  0.20636000  0.55908500  0.60315000  1.0
  C  C58  1  0.29012000  0.62104000  0.53977000  1.0
  C  C59  1  0.28964000  0.65927000  0.53202000  1.0
  C  C60  1  0.26592000  0.68733500  0.50014500  1.0
  C  C61  1  0.24854000  0.67649500  0.47521000  1.0
  C  C62  1  0.24778000  0.63815000  0.48465000  1.0
  C  C63  1  0.83938000  0.46390000  0.02564000  1.0
  C  C64  1  0.89643000  0.48034000  0.00218000  1.0
  C  C65  1  0.92192000  0.51029000  0.00388000  1.0
  C  C66  1  0.88562000  0.52550000  0.02630000  1.0
  C  C67  1  0.82845000  0.50866000  0.04876000  1.0
  C  C68  1  0.66038000  0.39743000  0.03713000  1.0
  C  C69  1  0.63986000  0.42835000  0.00607000  1.0
  C  C70  1  0.65842000  0.46498000  0.99633000  1.0
  C  C71  1  0.69204000  0.47022000  0.01945000  1.0
  C  C72  1  0.69402000  0.40387000  0.05964000  1.0
  C  C73  1  0.82730000  0.39187000  0.10612000  1.0
  C  C74  1  0.84842000  0.35653500  0.13150500  1.0
  C  C75  1  0.80842000  0.33355000  0.16508000  1.0
  C  C76  1  0.74706000  0.34679000  0.17206000  1.0
  C  C77  1  0.72734000  0.38195000  0.14562000  1.0
  C  C78  1  0.80334000  0.45793000  0.13576000  1.0
  C  C79  1  0.80932000  0.46752000  0.16385000  1.0
  C  C80  1  0.75972000  0.48658000  0.17616000  1.0
  C  C81  1  0.70548000  0.49623000  0.15967000  1.0
  C  C82  1  0.70090000  0.48558000  0.13217000  1.0
  C  C83  1  0.35442000  0.88658000  0.55405000  1.0
  C  C84  1  0.41318000  0.90239000  0.54766000  1.0
  C  C85  1  0.41720000  0.94062000  0.53853000  1.0
  C  C86  1  0.36154000  0.96226000  0.53601000  1.0
  C  C87  1  0.30346000  0.94518000  0.54318000  1.0
  C  C88  1  0.09054000  0.96052000  0.51249000  1.0
  C  C89  1  0.11818000  0.97791500  0.47419000  1.0
  C  C90  1  0.18114000  0.96882000  0.46380000  1.0
  C  C91  1  0.21396000  0.94158000  0.49163000  1.0
  C  C92  1  0.12468000  0.93373000  0.53915000  1.0
  C  C93  1  0.27500000  0.85534000  0.51800500  1.0
  C  C94  1  0.27726000  0.82830833  0.50502500  1.0
  C  C95  1  0.22824000  0.80199000  0.51936500  1.0
  C  C96  1  0.17754000  0.80372000  0.54589500  1.0
  C  C97  1  0.17805000  0.83025500  0.55890000  1.0
  C  C98  1  0.27006000  0.81366500  0.61783000  1.0
  C  C99  1  0.28002000  0.78547000  0.65332000  1.0
  C  C100  1  0.26118000  0.79166000  0.68502000  1.0
  C  C101  1  0.23724000  0.82747000  0.67965000  1.0
  C  C102  1  0.22936000  0.85527000  0.64348000  1.0
  C  C103  1  0.70422000  0.43630000  0.44895000  1.0
  C  C104  1  0.64668000  0.45391000  0.45489000  1.0
  C  C105  1  0.64450000  0.49309000  0.44272000  1.0
  C  C106  1  0.70064000  0.51369000  0.42551000  1.0
  C  C107  1  0.75728000  0.49498000  0.42071000  1.0
  C  C108  1  0.96419000  0.39782000  0.48541000  1.0
  C  C109  1  0.95282000  0.41814000  0.50614000  1.0
  C  C110  1  0.89696000  0.43958000  0.50471000  1.0
  C  C111  1  0.85679000  0.44304000  0.48019000  1.0
  C  C112  1  0.92325000  0.40230000  0.46102000  1.0
  C  C113  1  0.79380000  0.36445000  0.46720000  1.0
  C  C114  1  0.77740000  0.32718000  0.47778000  1.0
  C  C115  1  0.78471000  0.31450000  0.45039000  1.0
  C  C116  1  0.81116000  0.33963000  0.41310000  1.0
  C  C117  1  0.82918000  0.37594000  0.40414000  1.0
  C  C118  1  0.75668000  0.44674000  0.36269000  1.0
  C  C119  1  0.74412000  0.45929000  0.32625000  1.0
  C  C120  1  0.78564000  0.48474000  0.29491000  1.0
  C  C121  1  0.83796000  0.49787000  0.30077000  1.0
  C  C122  1  0.84982000  0.48377000  0.33746000  1.0
  C  C123  1  0.26740000  0.76165000  0.72349000  1.0
  C  C124  1  0.73564000  0.22725000  0.45880000  1.0
  C  C125  1  0.76032000  0.27654000  0.46064000  1.0
  C  C126  1  0.28126000  0.49922000  0.74685000  1.0
  C  C127  1  0.25680000  0.50109000  0.69783000  1.0
  C  C128  1  0.83392000  0.29813000  0.19364000  1.0
  C  C129  1  0.84324000  0.24506000  0.24198000  1.0
  C  C130  1  0.22677000  0.77388000  0.50577500  1.0
  C  C131  1  0.24446000  0.72509500  0.49686500  1.0
  C  C132  1  0.76537000  0.49781000  0.20501000  1.0
  C  C133  1  0.77596000  0.49711000  0.25603000  1.0
  C  C134  1  0.98432000  0.52721000  0.98167000  1.0
  C  C135  1  0.47886000  0.95671000  0.53430000  1.0
  C  C136  1  0.55906000  0.99247000  0.51451000  1.0
  C  C137  1  0.07208000  0.44021000  0.54223000  1.0
  C  C138  1  0.00213000  0.41984000  0.52590000  1.0
  C  C139  1  0.59605000  0.42253000  0.98555000  1.0
  C  C140  1  0.00731000  0.04271000  0.42087000  1.0
  C  C141  1  0.08278000  0.00739000  0.44589000  1.0
  C  C142  1  0.48996000  0.53102500  0.45634000  1.0
  C  C143  1  0.58336000  0.51344000  0.44205000  1.0
  H  H144  1  0.18874000  0.56335000  0.95582000  1.0
  H  H145  1  0.32246000  0.48154000  0.94548000  1.0
  H  H146  1  0.64520000  0.48956000  0.97185000  1.0
  H  H147  1  0.02978000  0.46368000  0.96296000  1.0
  H  H148  1  0.47920000  0.48523500  0.97228000  1.0
  H  H149  1  0.29430000  0.56196000  0.92007000  1.0
  H  H150  1  0.22148000  0.50043000  0.87513000  1.0
  H  H151  1  0.11832000  0.49907500  0.91092500  1.0
  H  H152  1  0.45062000  0.50392000  0.84383000  1.0
  H  H153  1  0.52828000  0.45991000  0.88002000  1.0
  H  H154  1  0.31504000  0.46842000  0.86677000  1.0
  H  H155  1  0.40520000  0.60993500  0.83857000  1.0
  H  H156  1  0.22646000  0.58038000  0.83220000  1.0
  H  H157  1  0.29100000  0.45174000  0.82051000  1.0
  H  H158  1  0.35320000  0.58209500  0.78144000  1.0
  H  H159  1  0.19883000  0.64781000  0.79664000  1.0
  H  H160  1  0.38192000  0.67796000  0.80164000  1.0
  H  H161  1  0.39766000  0.43765000  0.98294000  1.0
  H  H162  1  0.32098000  0.56892500  0.73572000  1.0
  H  H163  1  0.85146000  0.12630000  0.42973000  1.0
  H  H164  1  0.95422000  0.09733000  0.43879000  1.0
  H  H165  1  0.91792000  0.02659000  0.39133000  1.0
  H  H166  1  0.81273000  0.05684000  0.38327000  1.0
  H  H167  1  0.61864000  0.11599000  0.42544000  1.0
  H  H168  1  0.53930000  0.06952000  0.47190000  1.0
  H  H169  1  0.68758000  0.98519500  0.50364000  1.0
  H  H170  1  0.76429000  0.03341000  0.45876000  1.0
  H  H171  1  0.74848000  0.10460000  0.47288000  1.0
  H  H172  1  0.74430000  0.14963000  0.49857000  1.0
  H  H173  1  0.71244000  0.24058500  0.39081000  1.0
  H  H174  1  0.71196000  0.19394000  0.36791000  1.0
  H  H175  1  0.85072000  0.17190000  0.36867000  1.0
  H  H176  1  0.88858000  0.22407000  0.30658000  1.0
  H  H177  1  0.76690000  0.18626000  0.25866000  1.0
  H  H178  1  0.73044000  0.13439000  0.32228000  1.0
  H  H179  1  0.36272000  0.55243000  0.55086000  1.0
  H  H180  1  0.46500000  0.53827000  0.52146000  1.0
  H  H181  1  0.37548000  0.53945000  0.43533000  1.0
  H  H182  1  0.27342000  0.55180500  0.46756000  1.0
  H  H183  1  0.10610000  0.54825000  0.55066000  1.0
  H  H184  1  0.03618000  0.50101500  0.55500500  1.0
  H  H185  1  0.20066000  0.43559000  0.53981000  1.0
  H  H186  1  0.26762000  0.48303000  0.53750000  1.0
  H  H187  1  0.29330000  0.49307000  0.58592000  1.0
  H  H188  1  0.30328000  0.46837000  0.65234000  1.0
  H  H189  1  0.18744000  0.56129000  0.65601000  1.0
  H  H190  1  0.17752000  0.58385000  0.58948000  1.0
  H  H191  1  0.30670000  0.59989500  0.56501500  1.0
  H  H192  1  0.30222000  0.66598000  0.55265000  1.0
  H  H193  1  0.23005000  0.69716500  0.45029000  1.0
  H  H194  1  0.22808000  0.62971500  0.46725500  1.0
  H  H195  1  0.82230000  0.43989000  0.02470000  1.0
  H  H196  1  0.92002000  0.46948000  0.98308000  1.0
  H  H197  1  0.90145000  0.55009000  0.02689000  1.0
  H  H198  1  0.80072000  0.52189000  0.06471000  1.0
  H  H199  1  0.70514000  0.37963000  0.08478000  1.0
  H  H200  1  0.64720000  0.36869000  0.04534000  1.0
  H  H201  1  0.70232000  0.49878000  0.01331000  1.0
  H  H202  1  0.86186000  0.40931000  0.08279000  1.0
  H  H203  1  0.89674000  0.34791000  0.12543000  1.0
  H  H204  1  0.71508000  0.33155000  0.19832000  1.0
  H  H205  1  0.68048000  0.39240000  0.15161000  1.0
  H  H206  1  0.84248000  0.44407000  0.12590000  1.0
  H  H207  1  0.85248000  0.46049000  0.17556000  1.0
  H  H208  1  0.66666333  0.51135000  0.16836000  1.0
  H  H209  1  0.65846000  0.49226000  0.11988000  1.0
  H  H210  1  0.35331000  0.85694000  0.56160000  1.0
  H  H211  1  0.45514000  0.88463000  0.55029000  1.0
  H  H212  1  0.36240000  0.99158000  0.53037000  1.0
  H  H213  1  0.26054000  0.96155000  0.54356000  1.0
  H  H214  1  0.10300000  0.91998500  0.56871000  1.0
  H  H215  1  0.04336000  0.96799500  0.52210000  1.0
  H  H216  1  0.20448000  0.98244000  0.43451000  1.0
  H  H217  1  0.26224000  0.93475500  0.48340500  1.0
  H  H218  1  0.31174000  0.87631500  0.50532000  1.0
  H  H219  1  0.31595000  0.82851000  0.48340000  1.0
  H  H220  1  0.13829000  0.78422500  0.55703000  1.0
  H  H221  1  0.13954000  0.83094500  0.58014000  1.0
  H  H222  1  0.28344000  0.80730000  0.59442000  1.0
  H  H223  1  0.30260000  0.75927500  0.65550000  1.0
  H  H224  1  0.22306000  0.83362500  0.70332000  1.0
  H  H225  1  0.20876000  0.88248000  0.63952000  1.0
  H  H226  1  0.70194000  0.40719000  0.45515000  1.0
  H  H227  1  0.60358000  0.43745000  0.46651000  1.0
  H  H228  1  0.70046000  0.54425000  0.41473000  1.0
  H  H229  1  0.80016000  0.51133000  0.40614000  1.0
  H  H230  1  0.93560000  0.38941000  0.44241000  1.0
  H  H231  1  0.00686000  0.38097000  0.48578000  1.0
  H  H232  1  0.88618000  0.45518000  0.52089000  1.0
  H  H233  1  0.81658000  0.46174000  0.47793000  1.0
  H  H234  1  0.78660000  0.37376000  0.48869000  1.0
  H  H235  1  0.75796000  0.30873000  0.50708000  1.0
  H  H236  1  0.81660000  0.33232000  0.39035000  1.0
  H  H237  1  0.85244000  0.39394000  0.37561000  1.0
  H  H238  1  0.72502000  0.42658000  0.38656000  1.0
  H  H239  1  0.70272000  0.44906000  0.32256000  1.0
  H  H240  1  0.87068000  0.51775500  0.27711500  1.0
  H  H241  1  0.89146000  0.49283000  0.34203000  1.0
  H  H242  1  0.24959000  0.67589500  0.73261000  1.0
  H  H243  1  0.21416000  0.71649000  0.70308500  1.0
  H  H244  1  0.81466000  0.27632000  0.38550000  1.0
  H  H245  1  0.86412000  0.27437000  0.41451000  1.0
  H  H246  1  0.37378000  0.54549500  0.69417500  1.0
  H  H247  1  0.33714000  0.55629500  0.65689000  1.0
  H  H248  1  0.71770000  0.24713000  0.25720000  1.0
  H  H249  1  0.72462000  0.24873000  0.21406000  1.0
  H  H250  1  0.32574000  0.74074000  0.54494000  1.0
  H  H251  1  0.35684000  0.72115000  0.51531000  1.0
  H  H252  1  0.77888000  0.42290000  0.24096000  1.0
  H  H253  1  0.79714000  0.42265000  0.28022000  1.0
  H  H254  1  0.01672000  0.45468000  0.00897000  1.0
  H  H255  1  0.44826000  0.00186500  0.46823000  1.0
  H  H256  1  0.44553000  0.03621000  0.48158000  1.0
  H  H257  1  0.04658000  0.50730000  0.48824000  1.0
  H  H258  1  0.98924000  0.49133000  0.47622000  1.0
  H  H259  1  0.52704000  0.47259000  0.00515000  1.0
  H  H260  1  0.93526000  0.98175500  0.46096000  1.0
  H  H261  1  0.99676000  0.95181500  0.47762500  1.0
  H  H262  1  0.49212000  0.46921000  0.52345000  1.0
  H  H263  1  0.57170000  0.46096000  0.51398000  1.0
  N  N264  1  0.03430000  0.50949000  0.97027000  1.0
  N  N265  1  0.99942000  0.56317000  0.97171000  1.0
  N  N266  1  0.05906000  0.56864000  0.95418000  1.0
  N  N267  1  0.52500000  0.47738000  0.97781000  1.0
  N  N268  1  0.54508000  0.44442000  0.97408000  1.0
  N  N269  1  0.55622000  0.39908000  0.95633000  1.0
  N  N270  1  0.60242000  0.39458500  0.97532500  1.0
  N  N271  1  0.26598000  0.53055000  0.89588000  1.0
  N  N272  1  0.38146000  0.49481000  0.89214000  1.0
  N  N273  1  0.31784000  0.59169000  0.83695000  1.0
  N  N274  1  0.32912000  0.52749000  0.82832000  1.0
  N  N275  1  0.28800000  0.73590500  0.78005000  1.0
  N  N276  1  0.04398000  0.47032000  0.98228000  1.0
  N  N277  1  0.82304000  0.09153000  0.40824000  1.0
  N  N278  1  0.69587000  0.07779000  0.43892000  1.0
  N  N279  1  0.73764000  0.14720000  0.41735000  1.0
  N  N280  1  0.78776000  0.15030000  0.34898000  1.0
  N  N281  1  0.31076000  0.54933000  0.51296000  1.0
  N  N282  1  0.19038000  0.51919000  0.54272000  1.0
  N  N283  1  0.24010000  0.54225000  0.58268000  1.0
  N  N284  1  0.26406000  0.61090000  0.51774000  1.0
  N  N285  1  0.80852000  0.47599500  0.05110500  1.0
  N  N286  1  0.70841000  0.44010000  0.05099000  1.0
  N  N287  1  0.76698000  0.40426000  0.11318000  1.0
  N  N288  1  0.74912000  0.46670000  0.12065000  1.0
  N  N289  1  0.30008000  0.90793000  0.55143000  1.0
  N  N290  1  0.18500000  0.92443500  0.52870500  1.0
  N  N291  1  0.22706000  0.85483000  0.54598000  1.0
  N  N292  1  0.24460000  0.84809500  0.61330000  1.0
  N  N293  1  0.75912000  0.45680000  0.43220000  1.0
  N  N294  1  0.87124000  0.42537000  0.45785000  1.0
  N  N295  1  0.81520000  0.38936000  0.43007000  1.0
  N  N296  1  0.81044000  0.45802000  0.36763000  1.0
  N  N297  1  0.25430000  0.70515000  0.71556000  1.0
  N  N298  1  0.26388000  0.72381000  0.73613000  1.0
  N  N299  1  0.28106000  0.76907000  0.75031000  1.0
  N  N300  1  0.82730000  0.26085000  0.41228000  1.0
  N  N301  1  0.77380000  0.25766000  0.43979000  1.0
  N  N302  1  0.69998000  0.22713000  0.49004000  1.0
  N  N303  1  0.71520000  0.25799000  0.49108000  1.0
  N  N304  1  0.33016000  0.55121000  0.68503000  1.0
  N  N305  1  0.28980000  0.51999000  0.70867000  1.0
  N  N306  1  0.24496000  0.46866000  0.75837000  1.0
  N  N307  1  0.22975000  0.46979000  0.72784000  1.0
  N  N308  1  0.73426000  0.26315000  0.22823000  1.0
  N  N309  1  0.80005000  0.26804000  0.22144000  1.0
  N  N310  1  0.89558000  0.29342000  0.19693000  1.0
  N  N311  1  0.90132000  0.26048000  0.22721000  1.0
  N  N312  1  0.33076000  0.74363000  0.51763000  1.0
  N  N313  1  0.27044000  0.74647500  0.50829000  1.0
  N  N314  1  0.17621000  0.76951500  0.49348500  1.0
  N  N315  1  0.18738000  0.73929000  0.48775500  1.0
  N  N316  1  0.76702000  0.43380000  0.26024000  1.0
  N  N317  1  0.77011000  0.47381000  0.24136000  1.0
  N  N318  1  0.76866000  0.53429500  0.19771000  1.0
  N  N319  1  0.77584000  0.53386000  0.22954000  1.0
  N  N320  1  0.47542000  0.01688000  0.47543000  1.0
  N  N321  1  0.50022000  0.99174000  0.50814000  1.0
  N  N322  1  0.52250000  0.93709500  0.55610000  1.0
  N  N323  1  0.57250000  0.95933000  0.54370000  1.0
  N  N324  1  0.00684000  0.48987000  0.49898000  1.0
  N  N325  1  0.02324000  0.45206000  0.52297000  1.0
  N  N326  1  0.08092000  0.40235000  0.55588000  1.0
  N  N327  1  0.03744000  0.38967500  0.54558500  1.0
  N  N328  1  0.97621000  0.97837000  0.47225000  1.0
  N  N329  1  0.01980000  0.00734000  0.44699000  1.0
  N  N330  1  0.06066000  0.06339500  0.40396000  1.0
  N  N331  1  0.10784000  0.04126000  0.41936000  1.0
  N  N332  1  0.53657000  0.48174000  0.51051000  1.0
  N  N333  1  0.53632000  0.50659000  0.47187000  1.0
  N  N334  1  0.50776000  0.55152000  0.41857000  1.0
  N  N335  1  0.56604000  0.54064000  0.40969000  1.0
  Ni  Ni336  1  0.34592000  0.54208500  0.86402000  1.0
  Ni  Ni337  1  0.74466000  0.11427000  0.39523000  1.0
  Ni  Ni338  1  0.23112000  0.56348000  0.53158000  1.0
  Ni  Ni339  1  0.73304000  0.45286000  0.08523000  1.0
  Ni  Ni340  1  0.21860000  0.88628000  0.56932500  1.0
  Ni  Ni341  1  0.83728000  0.44028000  0.41399000  1.0
