# generated using pymatgen
data_Zn2H13C34N7O6F7
_symmetry_space_group_name_H-M   'P 1'
_cell_length_a   12.67605000
_cell_length_b   19.70845000
_cell_length_c   31.16800000
_cell_angle_alpha   90.00000000
_cell_angle_beta   90.00000000
_cell_angle_gamma   106.19900000
_symmetry_Int_Tables_number   1
_chemical_formula_structural   Zn2H13C34N7O6F7
_chemical_formula_sum   'Zn8 H52 C136 N28 O24 F28'
_cell_volume   7477.41739492
_cell_formula_units_Z   4
loop_
 _symmetry_equiv_pos_site_id
 _symmetry_equiv_pos_as_xyz
  1  'x, y, z'
loop_
 _atom_site_type_symbol
 _atom_site_label
 _atom_site_symmetry_multiplicity
 _atom_site_fract_x
 _atom_site_fract_y
 _atom_site_fract_z
 _atom_site_occupancy
  C  C0  1  0.60578000  0.05620000  0.08884000  1.0
  C  C1  1  0.67328000  0.08010000  0.05375000  1.0
  C  C2  1  0.79530000  0.16530000  0.09719000  1.0
  C  C3  1  0.72648000  0.14080000  0.13301000  1.0
  C  C4  1  0.03604000  0.15452000  0.00416000  1.0
  C  C5  1  0.65838000  0.02612000  0.92713000  1.0
  C  C6  1  0.81340000  0.03056000  0.95284000  1.0
  C  C7  1  0.84500000  0.23410000  0.83795000  1.0
  C  C8  1  0.79672000  0.20842000  0.87690000  1.0
  C  C9  1  0.62078000  0.20178000  0.84844000  1.0
  C  C10  1  0.66944000  0.22666000  0.80875000  1.0
  C  C11  1  0.47276000  0.14874000  0.96318000  1.0
  C  C12  1  0.81284000  0.28840000  0.97841000  1.0
  C  C13  1  0.02542000  0.78152000  0.83715000  1.0
  C  C14  1  0.05976000  0.76296000  0.87676000  1.0
  C  C15  1  0.18424000  0.71114000  0.84205000  1.0
  C  C16  1  0.15036000  0.73032000  0.80167000  1.0
  C  C17  1  0.36036000  0.71330000  0.94751000  1.0
  C  C18  1  0.08946000  0.86264000  0.00242000  1.0
  C  C19  1  0.23588000  0.85758000  0.97324000  1.0
  C  C20  1  0.16086000  0.64574000  0.08934000  1.0
  C  C21  1  0.10710000  0.66556000  0.05485000  1.0
  C  C22  1  0.00474000  0.71714000  0.10183000  1.0
  C  C23  1  0.06052000  0.69762000  0.13697000  1.0
  C  C24  1  0.80560000  0.73706000  0.99489000  1.0
  C  C25  1  0.99628000  0.59284000  0.96153000  1.0
  C  C26  1  0.13356000  0.53224000  0.59196000  1.0
  C  C27  1  0.19530000  0.56216000  0.55649000  1.0
  C  C28  1  0.28770000  0.66168000  0.59784000  1.0
  C  C29  1  0.22516000  0.63098000  0.63420000  1.0
  C  C30  1  0.53588000  0.65822000  0.50270000  1.0
  C  C31  1  0.15698000  0.53290000  0.42600000  1.0
  C  C32  1  0.31184000  0.53526000  0.45123000  1.0
  C  C33  1  0.35340000  0.74054000  0.33933000  1.0
  C  C34  1  0.30334000  0.71550000  0.37812000  1.0
  C  C35  1  0.12862000  0.70656000  0.34780000  1.0
  C  C36  1  0.17902000  0.73070000  0.30824000  1.0
  C  C37  1  0.97424000  0.65616000  0.46147000  1.0
  C  C38  1  0.31300000  0.79160000  0.48216000  1.0
  C  C39  1  0.51162000  0.26210000  0.33654000  1.0
  C  C40  1  0.55016000  0.24730000  0.37626000  1.0
  C  C41  1  0.69118000  0.21010000  0.34207000  1.0
  C  C42  1  0.65320000  0.22576000  0.30167000  1.0
  C  C43  1  0.86344000  0.21610000  0.44796000  1.0
  C  C44  1  0.59050000  0.36748000  0.49870000  1.0
  C  C45  1  0.73602000  0.36170000  0.46912000  1.0
  C  C46  1  0.67168000  0.16072000  0.59002000  1.0
  C  C47  1  0.61568000  0.17854000  0.55557000  1.0
  C  C48  1  0.50216000  0.22090000  0.60267000  1.0
  C  C49  1  0.55990000  0.20332000  0.63778000  1.0
  C  C50  1  0.30808000  0.24096000  0.49496000  1.0
  C  C51  1  0.50034000  0.09558000  0.46559000  1.0
  C  C52  1  0.14484000  0.14452000  0.99691000  1.0
  C  C53  1  0.17124000  0.12874000  0.95513000  1.0
  C  C54  1  0.27670000  0.12638000  0.94517000  1.0
  C  C55  1  0.35888000  0.14108000  0.97663000  1.0
  C  C56  1  0.33148000  0.15294000  0.01928000  1.0
  C  C57  1  0.22416000  0.15408000  0.02945000  1.0
  C  C58  1  0.47532000  0.72162000  0.95953000  1.0
  C  C59  1  0.49956000  0.70066000  0.00061000  1.0
  C  C60  1  0.60814000  0.71006000  0.01322000  1.0
  C  C61  1  0.69400000  0.73952000  0.98471000  1.0
  C  C62  1  0.67040000  0.76278000  0.94411000  1.0
  C  C63  1  0.56172000  0.75426000  0.93166000  1.0
  C  C64  1  0.64512000  0.64996000  0.49427000  1.0
  C  C65  1  0.72504000  0.66086000  0.52654000  1.0
  C  C66  1  0.83238000  0.66068000  0.51625000  1.0
  C  C67  1  0.85968000  0.64822000  0.47381000  1.0
  C  C68  1  0.77712000  0.63232000  0.44232000  1.0
  C  C69  1  0.67128000  0.63402000  0.45237000  1.0
  C  C70  1  0.19702000  0.24394000  0.48476000  1.0
  C  C71  1  0.11214000  0.21838000  0.51430000  1.0
  C  C72  1  0.00340000  0.20870000  0.50191000  1.0
  C  C73  1  0.97838000  0.22554000  0.46002000  1.0
  C  C74  1  0.06392000  0.25472000  0.43109000  1.0
  C  C75  1  0.17266000  0.26344000  0.44333000  1.0
  C  C76  1  0.86042000  0.36646000  0.97418000  1.0
  C  C77  1  0.79186000  0.41068000  0.96797000  1.0
  C  C78  1  0.83650000  0.48378000  0.96246000  1.0
  C  C79  1  0.95096000  0.51446000  0.96145000  1.0
  C  C80  1  0.02000000  0.47010000  0.96638000  1.0
  C  C81  1  0.97532000  0.39706000  0.97306000  1.0
  C  C82  1  0.45430000  0.01734000  0.46657000  1.0
  C  C83  1  0.33970000  0.98728000  0.46694000  1.0
  C  C84  1  0.29404000  0.91430000  0.47239000  1.0
  C  C85  1  0.36162000  0.86964000  0.47921000  1.0
  C  C86  1  0.47664000  0.89968000  0.47907000  1.0
  C  C87  1  0.52242000  0.97264000  0.47240000  1.0
  C  C88  1  0.54780000  0.97944000  0.93551000  1.0
  C  C89  1  0.45806000  0.97732000  0.90893000  1.0
  C  C90  1  0.35554000  0.93024000  0.91836000  1.0
  C  C91  1  0.34326000  0.88422000  0.95372000  1.0
  C  C92  1  0.43376000  0.88450000  0.97905000  1.0
  C  C93  1  0.53516000  0.93110000  0.96998000  1.0
  C  C94  1  0.84294000  0.38790000  0.44911000  1.0
  C  C95  1  0.93330000  0.38766000  0.47432000  1.0
  C  C96  1  0.03384000  0.43578000  0.46622000  1.0
  C  C97  1  0.04626000  0.48568000  0.43286000  1.0
  C  C98  1  0.95770000  0.48304000  0.40552000  1.0
  C  C99  1  0.85538000  0.43488000  0.41411000  1.0
  C  C100  1  0.00584000  0.89840000  0.99262000  1.0
  C  C101  1  0.00072000  0.91790000  0.94957000  1.0
  C  C102  1  0.94850000  0.96806000  0.93813000  1.0
  C  C103  1  0.89622000  0.99840000  0.96912000  1.0
  C  C104  1  0.89812000  0.97782000  0.01239000  1.0
  C  C105  1  0.95622000  0.92958000  0.02430000  1.0
  C  C106  1  0.50454000  0.40166000  0.48956000  1.0
  C  C107  1  0.46356000  0.43778000  0.52135000  1.0
  C  C108  1  0.40570000  0.48614000  0.50956000  1.0
  C  C109  1  0.39462000  0.50166000  0.46601000  1.0
  C  C110  1  0.43880000  0.46668000  0.43464000  1.0
  C  C111  1  0.49098000  0.41650000  0.44617000  1.0
  C  C112  1  0.60484000  0.23034000  0.76974000  1.0
  C  C113  1  0.52890000  0.16894000  0.75438000  1.0
  C  C114  1  0.49876000  0.16358000  0.71102000  1.0
  C  C115  1  0.54250000  0.21994000  0.68277000  1.0
  C  C116  1  0.60646000  0.28450000  0.69942000  1.0
  C  C117  1  0.63816000  0.28954000  0.74261000  1.0
  C  C118  1  0.23458000  0.66458000  0.67724000  1.0
  C  C119  1  0.23356000  0.62238000  0.71375000  1.0
  C  C120  1  0.21394000  0.64560000  0.75463000  1.0
  C  C121  1  0.19342000  0.71152000  0.76005000  1.0
  C  C122  1  0.20178000  0.75592000  0.72383000  1.0
  C  C123  1  0.22250000  0.73276000  0.68284000  1.0
  C  C124  1  0.04890000  0.71790000  0.18183000  1.0
  C  C125  1  0.00362000  0.66414000  0.21161000  1.0
  C  C126  1  0.03602000  0.67168000  0.25472000  1.0
  C  C127  1  0.11590000  0.73264000  0.26843000  1.0
  C  C128  1  0.15188000  0.78946000  0.23963000  1.0
  C  C129  1  0.11800000  0.78228000  0.19667000  1.0
  C  C130  1  0.70266000  0.21226000  0.26036000  1.0
  C  C131  1  0.72592000  0.14758000  0.25318000  1.0
  C  C132  1  0.74610000  0.12754000  0.21155000  1.0
  C  C133  1  0.74572000  0.17222000  0.17641000  1.0
  C  C134  1  0.73292000  0.23968000  0.18401000  1.0
  C  C135  1  0.71098000  0.25942000  0.22562000  1.0
  F  F136  1  0.40878000  0.16576000  0.05067000  1.0
  F  F137  1  0.19972000  0.16858000  0.07023000  1.0
  F  F138  1  0.75250000  0.79298000  0.91626000  1.0
  F  F139  1  0.54134000  0.77702000  0.89223000  1.0
  F  F140  1  0.79904000  0.61756000  0.40126000  1.0
  F  F141  1  0.59464000  0.62106000  0.42070000  1.0
  F  F142  1  0.04254000  0.27334000  0.39077000  1.0
  F  F143  1  0.25406000  0.28986000  0.41446000  1.0
  F  F144  1  0.13080000  0.49780000  0.96671000  1.0
  F  F145  1  0.04480000  0.35612000  0.97761000  1.0
  F  F146  1  0.54512000  0.85822000  0.48422000  1.0
  F  F147  1  0.63330000  0.99988000  0.47332000  1.0
  F  F148  1  0.42180000  0.84380000  0.01490000  1.0
  F  F149  1  0.62078000  0.93008000  0.99592000  1.0
  F  F150  1  0.96958000  0.52726000  0.37138000  1.0
  F  F151  1  0.76694000  0.43702000  0.39015000  1.0
  F  F152  1  0.83964000  0.00120000  0.04254000  1.0
  F  F153  1  0.96362000  0.91316000  0.06626000  1.0
  F  F154  1  0.42872000  0.47998000  0.39226000  1.0
  F  F155  1  0.53604000  0.38612000  0.41467000  1.0
  F  F156  1  0.65100000  0.33938000  0.67264000  1.0
  F  F157  1  0.71038000  0.34994000  0.75685000  1.0
  F  F158  1  0.18536000  0.82082000  0.72779000  1.0
  F  F159  1  0.22116000  0.77456000  0.64835000  1.0
  F  F160  1  0.22766000  0.84956000  0.25217000  1.0
  F  F161  1  0.16430000  0.83458000  0.16843000  1.0
  F  F162  1  0.73008000  0.28344000  0.15066000  1.0
  F  F163  1  0.69140000  0.32308000  0.23156000  1.0
  H  H164  1  0.53126000  0.01340000  0.08537000  1.0
  H  H165  1  0.64898000  0.05440000  0.02372000  1.0
  H  H166  1  0.86992000  0.20804000  0.10063000  1.0
  H  H167  1  0.93310000  0.24680000  0.83389000  1.0
  H  H168  1  0.84784000  0.20148000  0.90337000  1.0
  H  H169  1  0.53270000  0.18970000  0.85208000  1.0
  H  H170  1  0.96258000  0.80894000  0.83532000  1.0
  H  H171  1  0.02336000  0.77608000  0.90569000  1.0
  H  H172  1  0.24706000  0.68374000  0.84412000  1.0
  H  H173  1  0.22278000  0.61832000  0.08424000  1.0
  H  H174  1  0.12910000  0.65402000  0.02314000  1.0
  H  H175  1  0.94516000  0.74634000  0.10695000  1.0
  H  H176  1  0.07332000  0.48124000  0.58954000  1.0
  H  H177  1  0.18248000  0.53252000  0.52725000  1.0
  H  H178  1  0.34944000  0.71208000  0.60032000  1.0
  H  H179  1  0.44176000  0.75384000  0.33605000  1.0
  H  H180  1  0.35330000  0.70950000  0.40519000  1.0
  H  H181  1  0.04028000  0.69374000  0.35054000  1.0
  H  H182  1  0.44060000  0.28218000  0.33447000  1.0
  H  H183  1  0.50928000  0.25594000  0.40513000  1.0
  H  H184  1  0.76166000  0.18950000  0.34414000  1.0
  H  H185  1  0.73864000  0.13756000  0.58487000  1.0
  H  H186  1  0.63988000  0.16958000  0.52375000  1.0
  H  H187  1  0.43698000  0.24556000  0.60793000  1.0
  H  H188  1  0.11060000  0.11968000  0.92968000  1.0
  H  H189  1  0.29468000  0.11588000  0.91225000  1.0
  H  H190  1  0.43454000  0.67678000  0.02305000  1.0
  H  H191  1  0.62462000  0.69144000  0.04454000  1.0
  H  H192  1  0.70586000  0.67268000  0.55907000  1.0
  H  H193  1  0.89446000  0.67232000  0.54114000  1.0
  H  H194  1  0.12938000  0.20276000  0.54629000  1.0
  H  H195  1  0.93892000  0.18766000  0.52510000  1.0
  H  H196  1  0.70340000  0.38886000  0.96815000  1.0
  H  H197  1  0.78120000  0.51664000  0.95929000  1.0
  H  H198  1  0.28508000  0.02044000  0.46301000  1.0
  H  H199  1  0.20554000  0.89282000  0.47177000  1.0
  H  H200  1  0.46658000  0.01278000  0.88181000  1.0
  H  H201  1  0.28452000  0.93252000  0.89966000  1.0
  H  H202  1  0.92440000  0.35376000  0.50227000  1.0
  H  H203  1  0.10220000  0.43442000  0.48670000  1.0
  H  H204  1  0.04250000  0.89686000  0.92474000  1.0
  H  H205  1  0.94496000  0.98110000  0.90445000  1.0
  H  H206  1  0.47720000  0.42916000  0.55497000  1.0
  H  H207  1  0.36796000  0.50974000  0.53429000  1.0
  H  H208  1  0.50306000  0.12238000  0.77448000  1.0
  H  H209  1  0.45154000  0.11280000  0.69865000  1.0
  H  H210  1  0.24202000  0.56942000  0.71034000  1.0
  H  H211  1  0.20736000  0.60974000  0.78145000  1.0
  H  H212  1  0.95244000  0.61344000  0.20067000  1.0
  H  H213  1  0.00780000  0.62686000  0.27604000  1.0
  H  H214  1  0.71928000  0.10992000  0.27904000  1.0
  H  H215  1  0.75386000  0.07478000  0.20636000  1.0
  N  N216  1  0.69470000  0.08794000  0.94870000  1.0
  N  N217  1  0.78858000  0.08890000  0.96732000  1.0
  N  N218  1  0.68594000  0.19396000  0.88209000  1.0
  N  N219  1  0.78052000  0.24246000  0.80489000  1.0
  N  N220  1  0.73606000  0.99220000  0.92660000  1.0
  N  N221  1  0.76836000  0.13330000  0.05804000  1.0
  N  N222  1  0.63400000  0.08670000  0.12750000  1.0
  N  N223  1  0.07656000  0.79502000  0.98995000  1.0
  N  N224  1  0.16656000  0.79206000  0.96972000  1.0
  N  N225  1  0.02778000  0.69906000  0.06110000  1.0
  N  N226  1  0.13642000  0.66218000  0.12946000  1.0
  N  N227  1  0.19168000  0.90210000  0.99413000  1.0
  N  N228  1  0.13982000  0.72938000  0.87890000  1.0
  N  N229  1  0.07156000  0.76516000  0.80077000  1.0
  N  N230  1  0.19294000  0.59276000  0.44947000  1.0
  N  N231  1  0.28734000  0.59284000  0.46732000  1.0
  N  N232  1  0.19222000  0.70020000  0.38235000  1.0
  N  N233  1  0.29038000  0.74738000  0.30542000  1.0
  N  N234  1  0.23420000  0.49880000  0.42446000  1.0
  N  N235  1  0.27252000  0.62600000  0.55951000  1.0
  N  N236  1  0.15020000  0.56694000  0.62981000  1.0
  N  N237  1  0.57846000  0.29914000  0.48807000  1.0
  N  N238  1  0.66806000  0.29544000  0.46774000  1.0
  N  N239  1  0.53042000  0.20674000  0.56188000  1.0
  N  N240  1  0.64262000  0.17350000  0.63022000  1.0
  N  N241  1  0.69138000  0.40720000  0.48878000  1.0
  N  N242  1  0.64058000  0.22338000  0.37873000  1.0
  N  N243  1  0.56420000  0.25150000  0.30037000  1.0
  O  O244  1  0.98460000  0.17610000  0.97325000  1.0
  O  O245  1  0.97836000  0.13732000  0.03934000  1.0
  O  O246  1  0.72476000  0.25764000  0.95563000  1.0
  O  O247  1  0.86662000  0.25228000  0.00107000  1.0
  O  O248  1  0.55768000  0.17004000  0.98866000  1.0
  O  O249  1  0.49762000  0.13966000  0.92329000  1.0
  O  O250  1  0.27860000  0.68152000  0.97205000  1.0
  O  O251  1  0.33104000  0.74306000  0.91395000  1.0
  O  O252  1  0.94634000  0.62774000  0.98670000  1.0
  O  O253  1  0.08948000  0.62358000  0.94125000  1.0
  O  O254  1  0.87182000  0.72824000  0.96463000  1.0
  O  O255  1  0.84236000  0.73534000  0.03423000  1.0
  O  O256  1  0.48036000  0.67798000  0.47252000  1.0
  O  O257  1  0.48232000  0.64180000  0.53882000  1.0
  O  O258  1  0.22864000  0.76230000  0.45718000  1.0
  O  O259  1  0.36308000  0.75422000  0.50565000  1.0
  O  O260  1  0.05708000  0.67578000  0.48807000  1.0
  O  O261  1  0.00218000  0.64830000  0.42191000  1.0
  O  O262  1  0.78214000  0.18356000  0.47243000  1.0
  O  O263  1  0.83358000  0.24542000  0.41437000  1.0
  O  O264  1  0.45024000  0.13186000  0.48970000  1.0
  O  O265  1  0.59274000  0.12518000  0.44451000  1.0
  O  O266  1  0.37132000  0.22714000  0.46515000  1.0
  O  O267  1  0.34748000  0.24438000  0.53417000  1.0
  Zn  Zn268  1  0.64104000  0.16668000  0.94020000  1.0
  Zn  Zn269  1  0.86426000  0.15804000  0.00776000  1.0
  Zn  Zn270  1  0.96268000  0.71796000  0.00748000  1.0
  Zn  Zn271  1  0.18864000  0.71564000  0.93624000  1.0
  Zn  Zn272  1  0.14374000  0.67284000  0.44038000  1.0
  Zn  Zn273  1  0.36382000  0.65992000  0.50896000  1.0
  Zn  Zn274  1  0.46564000  0.22330000  0.50795000  1.0
  Zn  Zn275  1  0.69138000  0.21678000  0.43658000  1.0
