# generated using pymatgen
data_CaZn2H18(C9O4)3
_symmetry_space_group_name_H-M   'P 1'
_cell_length_a   12.41886667
_cell_length_b   12.74966667
_cell_length_c   13.14350000
_cell_angle_alpha   105.13200000
_cell_angle_beta   91.83600000
_cell_angle_gamma   108.80100000
_symmetry_Int_Tables_number   1
_chemical_formula_structural   CaZn2H18(C9O4)3
_chemical_formula_sum   'Ca1 Zn2 H18 C27 O12'
_cell_volume   1886.31804164
_cell_formula_units_Z   1
loop_
 _symmetry_equiv_pos_site_id
 _symmetry_equiv_pos_as_xyz
  1  'x, y, z'
loop_
 _atom_site_type_symbol
 _atom_site_label
 _atom_site_symmetry_multiplicity
 _atom_site_fract_x
 _atom_site_fract_y
 _atom_site_fract_z
 _atom_site_occupancy
  C  C0  1  0.82260000  0.08131000  0.04352000  1.0
  C  C1  1  0.13869000  0.07143000  0.42686000  1.0
  C  C2  1  0.42104000  0.05778000  0.03078000  1.0
  C  C3  1  0.64329000  0.09198000  0.97344000  1.0
  C  C4  1  0.76681000  0.11055000  0.95734000  1.0
  C  C5  1  0.14940000  0.32775000  0.05254000  1.0
  C  C6  1  0.49461000  0.16930000  0.03580000  1.0
  C  C7  1  0.60546000  0.18647000  0.00834000  1.0
  C  C8  1  0.99722000  0.65822000  0.00598000  1.0
  C  C9  1  0.15133000  0.57872000  0.00376000  1.0
  C  C10  1  0.10594000  0.65755000  0.97928000  1.0
  C  C11  1  0.08893000  0.49950000  0.05544000  1.0
  C  C12  1  0.92921000  0.56880000  0.04470000  1.0
  C  C13  1  0.97475000  0.48986000  0.06906000  1.0
  C  C14  1  0.15053000  0.44466000  0.11470000  1.0
  C  C15  1  0.96534000  0.76230000  0.01288000  1.0
  C  C16  1  0.09172000  0.96499000  0.67064000  1.0
  C  C17  1  0.45826000  0.96322000  0.99466000  1.0
  C  C18  1  0.56804000  0.98002000  0.96502000  1.0
  C  C19  1  0.02513000  0.05334000  0.38904000  1.0
  C  C20  1  0.94021000  0.03393000  0.45708000  1.0
  C  C21  1  0.30554000  0.03931000  0.06242000  1.0
  C  C22  1  0.11545000  0.04150000  0.78264000  1.0
  C  C23  1  0.99097000  0.03256000  0.27460000  1.0
  C  C24  1  0.96538000  0.01890000  0.55556000  1.0
  C  C25  1  0.07554000  0.02196000  0.58710000  1.0
  C  C26  1  0.16368000  0.05565000  0.52530000  1.0
  Ca  Ca27  1  0.05290000  0.04422000  0.02992000  1.0
  H  H28  1  0.20610000  0.08703000  0.37660000  1.0
  H  H29  1  0.46785000  0.24357000  0.06432000  1.0
  H  H30  1  0.66252000  0.27369000  0.01680000  1.0
  H  H31  1  0.81329000  0.20233000  0.96132000  1.0
  H  H32  1  0.23908000  0.58668000  0.99122000  1.0
  H  H33  1  0.84452000  0.56556000  0.06476000  1.0
  H  H34  1  0.92445000  0.42820000  0.10748000  1.0
  H  H35  1  0.11103000  0.43714000  0.18846000  1.0
  H  H36  1  0.24105000  0.50311000  0.14078000  1.0
  H  H37  1  0.16003000  0.72381000  0.94764000  1.0
  H  H38  1  0.16442000  0.93243000  0.65526000  1.0
  H  H39  1  0.01440000  0.88733000  0.66252000  1.0
  H  H40  1  0.40241000  0.87629000  0.98922000  1.0
  H  H41  1  0.59597000  0.90615000  0.93912000  1.0
  H  H42  1  0.24963000  0.05938000  0.54854000  1.0
  H  H43  1  0.89635000  0.99407000  0.60236000  1.0
  H  H44  1  0.85222000  0.02152000  0.43090000  1.0
  H  H45  1  0.77192000  0.05541000  0.87798000  1.0
  O  O46  1  0.06864000  0.06891000  0.21330000  1.0
  O  O47  1  0.24362000  0.09693000  0.03666000  1.0
  O  O48  1  0.22069000  0.11419000  0.81772000  1.0
  O  O49  1  0.80944000  0.12379000  0.14292000  1.0
  O  O50  1  0.06796000  0.23649000  0.06388000  1.0
  O  O51  1  0.24199000  0.32067000  0.00896000  1.0
  O  O52  1  0.86857000  0.76661000  0.04870000  1.0
  O  O53  1  0.04315000  0.85458000  0.99966000  1.0
  O  O54  1  0.88526000  0.96444000  0.23502000  1.0
  O  O55  1  0.26014000  0.95799000  0.10814000  1.0
  O  O56  1  0.86059000  0.99422000  0.01896000  1.0
  O  O57  1  0.03885000  0.01289000  0.84716000  1.0
  Zn  Zn58  1  0.28452000  0.19343000  0.95554000  1.0
  Zn  Zn59  1  0.82395000  0.89351000  0.09668000  1.0
