# generated using pymatgen
data_CuH76(C39N2)2
_symmetry_space_group_name_H-M   'P 1'
_cell_length_a   23.43841763
_cell_length_b   23.57590000
_cell_length_c   40.71410000
_cell_angle_alpha   88.09300000
_cell_angle_beta   85.91165754
_cell_angle_gamma   60.56212097
_symmetry_Int_Tables_number   1
_chemical_formula_structural   CuH76(C39N2)2
_chemical_formula_sum   'Cu3 H228 C234 N12'
_cell_volume   19543.25074558
_cell_formula_units_Z   3
loop_
 _symmetry_equiv_pos_site_id
 _symmetry_equiv_pos_as_xyz
  1  'x, y, z'
loop_
 _atom_site_type_symbol
 _atom_site_label
 _atom_site_symmetry_multiplicity
 _atom_site_fract_x
 _atom_site_fract_y
 _atom_site_fract_z
 _atom_site_occupancy
  C  C0  1  0.19930000  0.11556000  0.99913000  1.0
  C  C1  1  0.15236000  0.16086000  0.02194000  1.0
  C  C2  1  0.08888000  0.16932000  0.02524000  1.0
  C  C3  1  0.07248000  0.13214000  0.00600000  1.0
  C  C4  1  0.18040000  0.07858000  0.98088000  1.0
  C  C5  1  0.01858000  0.02566000  0.91370000  1.0
  C  C6  1  0.96554000  0.04568000  0.89448000  1.0
  C  C7  1  0.91894000  0.11129000  0.89357000  1.0
  C  C8  1  0.92622000  0.15774000  0.91117000  1.0
  C  C9  1  0.98086000  0.13426000  0.93077000  1.0
  C  C10  1  0.97670000  0.99106000  0.02562000  1.0
  C  C11  1  0.01644000  0.92830000  0.03825000  1.0
  C  C12  1  0.08302000  0.89280000  0.02786000  1.0
  C  C13  1  0.11018000  0.91978000  0.00497000  1.0
  C  C14  1  0.00716000  0.01560000  0.00286000  1.0
  C  C15  1  0.17814000  0.01797000  0.90355000  1.0
  C  C16  1  0.23044000  0.99422000  0.88013000  1.0
  C  C17  1  0.27986000  0.92982000  0.88188000  1.0
  C  C18  1  0.27612000  0.88812000  0.90658000  1.0
  C  C19  1  0.22228000  0.91548000  0.93020000  1.0
  C  C20  1  0.08146000  0.84772000  0.56271000  1.0
  C  C21  1  0.13268000  0.83274000  0.53834000  1.0
  C  C22  1  0.17684000  0.85538000  0.54109000  1.0
  C  C23  1  0.16772000  0.89620000  0.56710000  1.0
  C  C24  1  0.07410000  0.88994000  0.58845000  1.0
  C  C25  1  0.99836000  0.98620000  0.66419000  1.0
  C  C26  1  0.93758000  0.01290000  0.68188000  1.0
  C  C27  1  0.89290000  0.07912000  0.67874000  1.0
  C  C28  1  0.90964000  0.11892000  0.65847000  1.0
  C  C29  1  0.97156000  0.08940000  0.64124000  1.0
  C  C30  1  0.12754000  0.13232000  0.56596000  1.0
  C  C31  1  0.10142000  0.13228000  0.53586000  1.0
  C  C32  1  0.06976000  0.09632000  0.53234000  1.0
  C  C33  1  0.06726000  0.05762000  0.55827000  1.0
  C  C34  1  0.12494000  0.09112000  0.59125000  1.0
  C  C35  1  0.16392000  0.00209000  0.67277000  1.0
  C  C36  1  0.21374000  0.98424000  0.69425000  1.0
  C  C37  1  0.27022000  0.92344000  0.69076000  1.0
  C  C38  1  0.27630000  0.88004000  0.66609500  1.0
  C  C39  1  0.22398000  0.90022000  0.64548000  1.0
  C  C40  1  0.88786000  0.05224000  0.23868000  1.0
  C  C41  1  0.92436000  0.00810000  0.21288000  1.0
  C  C42  1  0.99134000  0.96638000  0.21461000  1.0
  C  C43  1  0.02276000  0.97126000  0.24114000  1.0
  C  C44  1  0.92230000  0.05548000  0.26496000  1.0
  C  C45  1  0.94972000  0.11520000  0.34534000  1.0
  C  C46  1  0.91712000  0.17010000  0.36554000  1.0
  C  C47  1  0.92976000  0.22182000  0.36029000  1.0
  C  C48  1  0.97502000  0.21860000  0.33477000  1.0
  C  C49  1  0.00714000  0.16164000  0.31543000  1.0
  C  C50  1  0.21304000  0.00438000  0.23645000  1.0
  C  C51  1  0.18326000  0.04354000  0.20911000  1.0
  C  C52  1  0.11558000  0.08338000  0.20974000  1.0
  C  C53  1  0.07724000  0.08158000  0.23694000  1.0
  C  C54  1  0.17182000  0.00382000  0.26327000  1.0
  C  C55  1  0.11198000  0.96630000  0.35191000  1.0
  C  C56  1  0.14210000  0.91582000  0.37434000  1.0
  C  C57  1  0.14836000  0.85514000  0.36811000  1.0
  C  C58  1  0.12424000  0.84506000  0.33947000  1.0
  C  C59  1  0.09334000  0.89800000  0.31792000  1.0
  C  C60  1  0.60230000  0.50716000  0.76532000  1.0
  C  C61  1  0.60294000  0.51074000  0.79854000  1.0
  C  C62  1  0.55006000  0.56454000  0.81865000  1.0
  C  C63  1  0.65702000  0.46102000  0.81751000  1.0
  C  C64  1  0.64954000  0.44758000  0.74645000  1.0
  C  C65  1  0.55602000  0.56298000  0.74532000  1.0
  C  C66  1  0.54080000  0.62778000  0.81674000  1.0
  C  C67  1  0.49718000  0.67522000  0.83939000  1.0
  C  C68  1  0.46130000  0.66068000  0.86451000  1.0
  C  C69  1  0.47094000  0.59666000  0.86558000  1.0
  C  C70  1  0.51434000  0.54960000  0.84299000  1.0
  C  C71  1  0.69504000  0.47994000  0.83425000  1.0
  C  C72  1  0.73886000  0.43814000  0.85667000  1.0
  C  C73  1  0.74638000  0.37568000  0.86313000  1.0
  C  C74  1  0.70844000  0.35684000  0.84541000  1.0
  C  C75  1  0.66466000  0.39888000  0.82280000  1.0
  C  C76  1  0.62494000  0.41540000  0.72880000  1.0
  C  C77  1  0.66580000  0.36574000  0.70673000  1.0
  C  C78  1  0.73354000  0.34566000  0.70169000  1.0
  C  C79  1  0.75768000  0.37826000  0.72014000  1.0
  C  C80  1  0.71646000  0.42806000  0.74239000  1.0
  C  C81  1  0.48762000  0.59076000  0.74997000  1.0
  C  C82  1  0.44626000  0.63984000  0.72880000  1.0
  C  C83  1  0.47230000  0.66230000  0.70231000  1.0
  C  C84  1  0.54134000  0.63346000  0.69819000  1.0
  C  C85  1  0.58216000  0.58530000  0.71939000  1.0
  C  C86  1  0.06754000  0.51056000  0.43503000  1.0
  C  C87  1  0.06612000  0.50820000  0.46862000  1.0
  C  C88  1  0.08734000  0.44530000  0.48645000  1.0
  C  C89  1  0.04889000  0.56771000  0.48811000  1.0
  C  C90  1  0.07814000  0.56079000  0.41669000  1.0
  C  C91  1  0.06198000  0.46166000  0.41510000  1.0
  C  C92  1  0.05422000  0.44230000  0.51593000  1.0
  C  C93  1  0.07934000  0.38514000  0.53466500  1.0
  C  C94  1  0.13806000  0.32866000  0.52429000  1.0
  C  C95  1  0.17096000  0.33300000  0.49461000  1.0
  C  C96  1  0.14586000  0.38994000  0.47601000  1.0
  C  C97  1  0.08568000  0.56520000  0.51435000  1.0
  C  C98  1  0.06942000  0.62156000  0.53209000  1.0
  C  C99  1  0.01690000  0.68268000  0.52347000  1.0
  C  C100  1  0.97806000  0.68338000  0.49828000  1.0
  C  C101  1  0.99390000  0.62708000  0.48090000  1.0
  C  C102  1  0.13472000  0.56488000  0.42092000  1.0
  C  C103  1  0.15090000  0.60418000  0.40038000  1.0
  C  C104  1  0.11008000  0.64208000  0.37515000  1.0
  C  C105  1  0.05132000  0.63987000  0.37248000  1.0
  C  C106  1  0.03612000  0.59924000  0.39259000  1.0
  C  C107  1  0.10452000  0.43318000  0.38731000  1.0
  C  C108  1  0.09311000  0.39587000  0.36551000  1.0
  C  C109  1  0.03700000  0.38776000  0.36996000  1.0
  C  C110  1  0.99820000  0.41176000  0.39984000  1.0
  C  C111  1  0.01026000  0.44844000  0.42186000  1.0
  C  C112  1  0.56622000  0.04054000  0.10817000  1.0
  C  C113  1  0.55648000  0.04202000  0.14176000  1.0
  C  C114  1  0.51210000  0.02018000  0.15879000  1.0
  C  C115  1  0.59166000  0.06436000  0.16257000  1.0
  C  C116  1  0.62510000  0.04182000  0.09220000  1.0
  C  C117  1  0.51588000  0.04404000  0.08639000  1.0
  C  C118  1  0.47324000  0.05242000  0.18711000  1.0
  C  C119  1  0.43624000  0.02856000  0.20484000  1.0
  C  C120  1  0.43510000  0.97270000  0.19423000  1.0
  C  C121  1  0.47598000  0.93986000  0.16613000  1.0
  C  C122  1  0.51356000  0.96322000  0.14873000  1.0
  C  C123  1  0.59124000  0.12306000  0.15541000  1.0
  C  C124  1  0.62708000  0.14244000  0.17339000  1.0
  C  C125  1  0.66478000  0.10386000  0.19928000  1.0
  C  C126  1  0.65982000  0.04786000  0.20814000  1.0
  C  C127  1  0.62470000  0.02788000  0.18969000  1.0
  C  C128  1  0.68812000  0.99920000  0.10253000  1.0
  C  C129  1  0.74220000  0.00550000  0.09064000  1.0
  C  C130  1  0.73526000  0.05396000  0.06740000  1.0
  C  C131  1  0.67188000  0.09436000  0.05605000  1.0
  C  C132  1  0.61790000  0.08814000  0.06808000  1.0
  C  C133  1  0.45000000  0.09244000  0.09119000  1.0
  C  C134  1  0.40470000  0.10224000  0.06802000  1.0
  C  C135  1  0.42378000  0.06444000  0.03885000  1.0
  C  C136  1  0.48928000  0.01202000  0.03608000  1.0
  C  C137  1  0.53462000  0.00302000  0.05904000  1.0
  C  C138  1  0.32892000  0.81674000  0.91060000  1.0
  C  C139  1  0.43864000  0.80888000  0.89100000  1.0
  C  C140  1  0.36820000  0.79748000  0.85141000  1.0
  C  C141  1  0.45954000  0.68660000  0.92345000  1.0
  C  C142  1  0.38982000  0.78376000  0.88557500  1.0
  C  C143  1  0.41808000  0.70876000  0.89261000  1.0
  C  C144  1  0.35468000  0.70400000  0.90073000  1.0
  C  C145  1  0.29998000  0.77086000  0.91263000  1.0
  C  C146  1  0.02970000  0.82676000  0.55948000  1.0
  C  C147  1  0.06234000  0.72608000  0.59514000  1.0
  C  C148  1  0.11710000  0.71574000  0.54032000  1.0
  C  C149  1  0.93738000  0.76262000  0.56516000  1.0
  C  C150  1  0.05320000  0.75208000  0.55931000  1.0
  C  C151  1  0.99792000  0.74749000  0.54129000  1.0
  C  C152  1  0.97732000  0.80348000  0.51566000  1.0
  C  C153  1  0.99136000  0.85496000  0.52866000  1.0
  C  C154  1  0.81474000  0.10106000  0.23660000  1.0
  C  C155  1  0.74912000  0.05946000  0.27208000  1.0
  C  C156  1  0.79782000  0.01016000  0.21804000  1.0
  C  C157  1  0.65834000  0.18344000  0.24031000  1.0
  C  C158  1  0.76666000  0.07274000  0.23623000  1.0
  C  C159  1  0.70668000  0.12616000  0.21731000  1.0
  C  C160  1  0.74084000  0.15190000  0.19174000  1.0
  C  C161  1  0.80162000  0.14548000  0.20643000  1.0
  C  C162  1  0.87598000  0.23074000  0.91220000  1.0
  C  C163  1  0.76350000  0.24034000  0.90682000  1.0
  C  C164  1  0.83470000  0.23496000  0.85697000  1.0
  C  C165  1  0.74938000  0.36760000  0.92416000  1.0
  C  C166  1  0.81446000  0.25928000  0.89136000  1.0
  C  C167  1  0.78942000  0.33482000  0.89147000  1.0
  C  C168  1  0.85468000  0.33730000  0.89006000  1.0
  C  C169  1  0.90780000  0.27310000  0.90373000  1.0
  C  C170  1  0.16426000  0.17007000  0.56997000  1.0
  C  C171  1  0.10188000  0.27642000  0.60229000  1.0
  C  C172  1  0.06248000  0.26788000  0.54987000  1.0
  C  C173  1  0.21674000  0.27614000  0.56814000  1.0
  C  C174  1  0.12340000  0.24674000  0.56709000  1.0
  C  C175  1  0.17063000  0.26665000  0.54612000  1.0
  C  C176  1  0.21312000  0.20550000  0.52449000  1.0
  C  C177  1  0.22342000  0.14682000  0.54493000  1.0
  C  C178  1  0.28726000  0.95882000  0.23587000  1.0
  C  C179  1  0.34290000  0.00336000  0.27046000  1.0
  C  C180  1  0.29880000  0.05644000  0.21845000  1.0
  C  C181  1  0.44514000  0.88688000  0.23461000  1.0
  C  C182  1  0.33150000  0.99194000  0.23473000  1.0
  C  C183  1  0.39580000  0.94360000  0.21347000  1.0
  C  C184  1  0.36868000  0.91512000  0.18904000  1.0
  C  C185  1  0.31178000  0.91092000  0.20685000  1.0
  C  C186  1  0.13404000  0.77820000  0.33045500  1.0
  C  C187  1  0.02144000  0.78556000  0.33561000  1.0
  C  C188  1  0.07780000  0.77662000  0.38522000  1.0
  C  C189  1  0.13140000  0.65110000  0.31426000  1.0
  C  C190  1  0.08934000  0.75522000  0.35033000  1.0
  C  C191  1  0.13126000  0.67860000  0.34868000  1.0
  C  C192  1  0.20128000  0.66818000  0.35211000  1.0
  C  C193  1  0.20528000  0.72274000  0.33278000  1.0
  C  C194  1  0.90438000  0.03700000  0.03673000  1.0
  C  C195  1  0.88726000  0.01050000  0.09686000  1.0
  C  C196  1  0.87406000  0.95158000  0.05097000  1.0
  C  C197  1  0.77328000  0.13334000  0.07643000  1.0
  C  C198  1  0.86462000  0.01546000  0.06141000  1.0
  C  C199  1  0.79086000  0.07014000  0.05720000  1.0
  C  C200  1  0.79100000  0.08500000  0.01975000  1.0
  C  C201  1  0.86118000  0.06616000  0.00742000  1.0
  C  C202  1  0.86160000  0.19100000  0.65264000  1.0
  C  C203  1  0.90210000  0.25244000  0.68532000  1.0
  C  C204  1  0.83472000  0.21066000  0.71351000  1.0
  C  C205  1  0.78526000  0.34284000  0.64572000  1.0
  C  C206  1  0.84428000  0.23910000  0.68197000  1.0
  C  C207  1  0.77652000  0.29920000  0.67287000  1.0
  C  C208  1  0.74290000  0.26434000  0.65772000  1.0
  C  C209  1  0.79630000  0.20318000  0.64025000  1.0
  C  C210  1  0.98844000  0.27502000  0.32667000  1.0
  C  C211  1  0.10596000  0.23304000  0.34342000  1.0
  C  C212  1  0.01422000  0.27788000  0.38477000  1.0
  C  C213  1  0.04946000  0.36218000  0.30816000  1.0
  C  C214  1  0.03296000  0.28466000  0.34989000  1.0
  C  C215  1  0.01750000  0.35674000  0.34247000  1.0
  C  C216  1  0.94220000  0.39220000  0.33837000  1.0
  C  C217  1  0.92644000  0.34212000  0.32444000  1.0
  C  C218  1  0.26854000  0.10650000  0.99265000  1.0
  C  C219  1  0.34302000  0.99058000  0.01313000  1.0
  C  C220  1  0.29096000  0.08176000  0.05170000  1.0
  C  C221  1  0.41688000  0.05088000  0.97711000  1.0
  C  C222  1  0.32018000  0.06368000  0.01757000  1.0
  C  C223  1  0.37638000  0.08176000  0.01030000  1.0
  C  C224  1  0.33646000  0.15640000  0.00388000  1.0
  C  C225  1  0.27214000  0.16994000  0.98946000  1.0
  C  C226  1  0.33902000  0.81504000  0.65919000  1.0
  C  C227  1  0.30784000  0.73188000  0.68215000  1.0
  C  C228  1  0.34764000  0.78450000  0.71859500  1.0
  C  C229  1  0.43834000  0.66628000  0.64556000  1.0
  C  C230  1  0.35546000  0.75930000  0.68475000  1.0
  C  C231  1  0.43026000  0.70986000  0.67538000  1.0
  C  C232  1  0.45780000  0.75618000  0.66430500  1.0
  C  C233  1  0.40094000  0.82114000  0.65386000  1.0
  Cu  Cu234  1  0.09944000  0.02772000  0.96008000  1.0
  Cu  Cu235  1  0.09900000  0.98760000  0.61835000  1.0
  Cu  Cu236  1  0.04350000  0.03136000  0.29436000  1.0
  H  H237  1  0.16440000  0.18958000  0.03726000  1.0
  H  H238  1  0.05276000  0.20416000  0.04276000  1.0
  H  H239  1  0.02376000  0.13774000  0.00879000  1.0
  H  H240  1  0.21586000  0.04172000  0.96402000  1.0
  H  H241  1  0.05426000  0.97448000  0.91517000  1.0
  H  H242  1  0.95990000  0.01034000  0.88081000  1.0
  H  H243  1  0.87770000  0.12354000  0.87925000  1.0
  H  H244  1  0.98740000  0.16720000  0.94592000  1.0
  H  H245  1  0.99772000  0.90618000  0.05630000  1.0
  H  H246  1  0.11358000  0.84482000  0.03780000  1.0
  H  H247  1  0.16172000  0.89292000  0.99753000  1.0
  H  H248  1  0.97932000  0.06434000  0.99332000  1.0
  H  H249  1  0.14024000  0.06846000  0.90272000  1.0
  H  H250  1  0.23324000  0.02592000  0.86101000  1.0
  H  H251  1  0.32032000  0.91476000  0.86382000  1.0
  H  H252  1  0.21870000  0.88622000  0.95026000  1.0
  H  H253  1  0.13772000  0.80546000  0.51649000  1.0
  H  H254  1  0.21622000  0.84362000  0.52240000  1.0
  H  H255  1  0.19954000  0.91712000  0.56832000  1.0
  H  H256  1  0.03266000  0.90676000  0.60627000  1.0
  H  H257  1  0.03326000  0.93492000  0.66636000  1.0
  H  H258  1  0.92494000  0.98236000  0.69764000  1.0
  H  H259  1  0.84524000  0.09882000  0.69185000  1.0
  H  H260  1  0.98618000  0.11810000  0.62522000  1.0
  H  H261  1  0.10582000  0.15976000  0.51496000  1.0
  H  H262  1  0.04866000  0.09724000  0.50942000  1.0
  H  H263  1  0.04410000  0.02830000  0.55544000  1.0
  H  H264  1  0.14748000  0.08688000  0.61413000  1.0
  H  H265  1  0.12028000  0.04939000  0.67503000  1.0
  H  H266  1  0.20904000  0.01762000  0.71321000  1.0
  H  H267  1  0.30914000  0.91114000  0.70703000  1.0
  H  H268  1  0.22664000  0.86822000  0.62636000  1.0
  H  H269  1  0.90180000  0.00680000  0.19087000  1.0
  H  H270  1  0.01920000  0.93248000  0.19481000  1.0
  H  H271  1  0.07552000  0.94196000  0.24155000  1.0
  H  H272  1  0.89728000  0.09182000  0.28408000  1.0
  H  H273  1  0.94072000  0.07462000  0.34939000  1.0
  H  H274  1  0.88236000  0.17254000  0.38517000  1.0
  H  H275  1  0.90410000  0.26404000  0.37617000  1.0
  H  H276  1  0.04322000  0.15676000  0.29603000  1.0
  H  H277  1  0.21222000  0.04280000  0.18704000  1.0
  H  H278  1  0.09286000  0.11384000  0.18886000  1.0
  H  H279  1  0.02434000  0.11014000  0.23703000  1.0
  H  H280  1  0.19210000  0.97156000  0.28392000  1.0
  H  H281  1  0.10700000  0.01350000  0.35650000  1.0
  H  H282  1  0.16078000  0.92354000  0.39631000  1.0
  H  H283  1  0.17252000  0.81610000  0.38551000  1.0
  H  H284  1  0.07356000  0.89232000  0.29590000  1.0
  H  H285  1  0.56910000  0.63984000  0.79851000  1.0
  H  H286  1  0.49338000  0.72246000  0.83695000  1.0
  H  H287  1  0.44648000  0.58192000  0.88469000  1.0
  H  H288  1  0.52162000  0.50060000  0.84520000  1.0
  H  H289  1  0.68900000  0.52831000  0.83086000  1.0
  H  H290  1  0.76512000  0.45610000  0.86996500  1.0
  H  H291  1  0.63464000  0.38396000  0.81055000  1.0
  H  H292  1  0.57302000  0.43070000  0.73108000  1.0
  H  H293  1  0.64218000  0.34622000  0.69259000  1.0
  H  H294  1  0.80722000  0.36918000  0.71588000  1.0
  H  H295  1  0.73606000  0.45388000  0.75496000  1.0
  H  H296  1  0.46616000  0.57330000  0.76938000  1.0
  H  H297  1  0.39434000  0.65848000  0.73327000  1.0
  H  H298  1  0.56462000  0.64658000  0.67778000  1.0
  H  H299  1  0.63480000  0.56430000  0.71500000  1.0
  H  H300  1  0.71054000  0.31050000  0.84898000  1.0
  H  H301  1  0.00956000  0.48482000  0.52492000  1.0
  H  H302  1  0.05268000  0.38648000  0.55749000  1.0
  H  H303  1  0.21774000  0.29318000  0.48585000  1.0
  H  H304  1  0.17410000  0.39146000  0.45409000  1.0
  H  H305  1  0.12758000  0.51966000  0.52099000  1.0
  H  H306  1  0.09918000  0.61618000  0.55214000  1.0
  H  H307  1  0.96282000  0.63004000  0.46172000  1.0
  H  H308  1  0.16849000  0.53479000  0.43909000  1.0
  H  H309  1  0.19720000  0.60154000  0.40401000  1.0
  H  H310  1  0.01818000  0.66672000  0.35363000  1.0
  H  H311  1  0.99224000  0.59658000  0.38876000  1.0
  H  H312  1  0.14598000  0.44112000  0.38196000  1.0
  H  H313  1  0.12792000  0.37572000  0.34462000  1.0
  H  H314  1  0.95720000  0.40392000  0.40639000  1.0
  H  H315  1  0.97716000  0.46904000  0.44347000  1.0
  H  H316  1  0.93492000  0.72778000  0.49176000  1.0
  H  H317  1  0.47218000  0.09578000  0.19592000  1.0
  H  H318  1  0.40904000  0.05470000  0.22681000  1.0
  H  H319  1  0.48044000  0.89482000  0.15769000  1.0
  H  H320  1  0.54540000  0.93540000  0.12790000  1.0
  H  H321  1  0.56358000  0.15378000  0.13555000  1.0
  H  H322  1  0.62538000  0.18796000  0.16667000  1.0
  H  H323  1  0.62422000  0.98326000  0.19633000  1.0
  H  H324  1  0.69520000  0.96212000  0.12073000  1.0
  H  H325  1  0.78854000  0.97268000  0.10054000  1.0
  H  H326  1  0.66306000  0.13316000  0.03871000  1.0
  H  H327  1  0.56988000  0.12176000  0.05965000  1.0
  H  H328  1  0.43398000  0.12472000  0.11225000  1.0
  H  H329  1  0.35502000  0.14084000  0.07308000  1.0
  H  H330  1  0.50750000  0.97836000  0.01569000  1.0
  H  H331  1  0.58498000  0.96446000  0.05507000  1.0
  H  H332  1  0.68366000  0.01800000  0.22879000  1.0
  H  H333  1  0.33898000  0.69130000  0.87822000  1.0
  H  H334  1  0.36134000  0.66628000  0.91955000  1.0
  H  H335  1  0.28216000  0.76772000  0.93832000  1.0
  H  H336  1  0.25810000  0.78822000  0.89655000  1.0
  H  H337  1  0.34686000  0.81496000  0.93541000  1.0
  H  H338  1  0.48820000  0.77694000  0.87951000  1.0
  H  H339  1  0.44476000  0.81134000  0.91761000  1.0
  H  H340  1  0.42166000  0.85844000  0.88093000  1.0
  H  H341  1  0.47300000  0.63572000  0.93025000  1.0
  H  H342  1  0.43270000  0.71720000  0.94536000  1.0
  H  H343  1  0.50612000  0.68786000  0.91859000  1.0
  H  H344  1  0.00720000  0.78472000  0.49200000  1.0
  H  H345  1  0.92480000  0.82596000  0.51011000  1.0
  H  H346  1  0.94454000  0.90026000  0.53501000  1.0
  H  H347  1  0.01890000  0.86755000  0.50914000  1.0
  H  H348  1  0.99262000  0.84862000  0.58057000  1.0
  H  H349  1  0.07174000  0.67528000  0.59677000  1.0
  H  H350  1  0.01840000  0.75604000  0.61169000  1.0
  H  H351  1  0.10426000  0.72774000  0.60533000  1.0
  H  H352  1  0.89602000  0.76678000  0.55158000  1.0
  H  H353  1  0.91916000  0.80920000  0.57855000  1.0
  H  H354  1  0.94950000  0.72294000  0.58346000  1.0
  H  H355  1  0.75718000  0.12144000  0.16902000  1.0
  H  H356  1  0.70844000  0.20324000  0.18435000  1.0
  H  H357  1  0.79250000  0.19426000  0.21406000  1.0
  H  H358  1  0.84324000  0.12652000  0.18744000  1.0
  H  H359  1  0.79913000  0.13419000  0.25827000  1.0
  H  H360  1  0.70994000  0.04606000  0.27347000  1.0
  H  H361  1  0.73202000  0.10266000  0.28815000  1.0
  H  H362  1  0.79304000  0.01920000  0.28302000  1.0
  H  H363  1  0.62112000  0.22420000  0.22602000  1.0
  H  H364  1  0.68410000  0.20326000  0.25390000  1.0
  H  H365  1  0.63134000  0.16758000  0.25844000  1.0
  H  H366  1  0.87040000  0.34192000  0.86411000  1.0
  H  H367  1  0.85038000  0.37916000  0.90400000  1.0
  H  H368  1  0.92714000  0.28218000  0.92595000  1.0
  H  H369  1  0.94914000  0.24898000  0.88476000  1.0
  H  H370  1  0.85872000  0.24074000  0.93864000  1.0
  H  H371  1  0.71398000  0.27126000  0.89788000  1.0
  H  H372  1  0.75828000  0.24576000  0.93402000  1.0
  H  H373  1  0.77782000  0.18912000  0.90156000  1.0
  H  H374  1  0.73836000  0.41902000  0.92549000  1.0
  H  H375  1  0.77616000  0.34274000  0.94622000  1.0
  H  H376  1  0.70154000  0.36830000  0.92594000  1.0
  H  H377  1  0.18652000  0.20692000  0.50261000  1.0
  H  H378  1  0.26152000  0.20026000  0.51570000  1.0
  H  H379  1  0.26928000  0.12868000  0.55805000  1.0
  H  H380  1  0.23026000  0.10658000  0.52874000  1.0
  H  H381  1  0.18546000  0.15738000  0.59454000  1.0
  H  H382  1  0.07692000  0.33020000  0.60225000  1.0
  H  H383  1  0.14422000  0.25902000  0.61792000  1.0
  H  H384  1  0.06758000  0.26154000  0.61483000  1.0
  H  H385  1  0.25450000  0.28230000  0.55282000  1.0
  H  H386  1  0.24284000  0.23372000  0.58454000  1.0
  H  H387  1  0.18868000  0.32052000  0.58363000  1.0
  H  H388  1  0.34952000  0.94854000  0.16768000  1.0
  H  H389  1  0.40598000  0.86632000  0.17935000  1.0
  H  H390  1  0.32940000  0.86050000  0.21620000  1.0
  H  H391  1  0.27358000  0.92076000  0.18940000  1.0
  H  H392  1  0.29766000  0.92792000  0.25837000  1.0
  H  H393  1  0.37872000  0.02088000  0.27130000  1.0
  H  H394  1  0.36142000  0.95818000  0.28536000  1.0
  H  H395  1  0.29598000  0.03994000  0.28315000  1.0
  H  H396  1  0.48590000  0.84906000  0.21881000  1.0
  H  H397  1  0.42118000  0.86278000  0.24914000  1.0
  H  H398  1  0.46748000  0.90478000  0.25184000  1.0
  H  H399  1  0.20890000  0.67492000  0.37799000  1.0
  H  H400  1  0.24070000  0.61938000  0.34348000  1.0
  H  H401  1  0.22826000  0.70498000  0.30769000  1.0
  H  H402  1  0.23732000  0.73720000  0.34478000  1.0
  H  H403  1  0.12368000  0.78024000  0.30401000  1.0
  H  H404  1  0.98784000  0.77218000  0.34995000  1.0
  H  H405  1  0.02526000  0.77146000  0.30951000  1.0
  H  H406  1  0.99774000  0.83960000  0.33617000  1.0
  H  H407  1  0.16488000  0.59757000  0.31349000  1.0
  H  H408  1  0.14838000  0.67258000  0.29384000  1.0
  H  H409  1  0.08230000  0.65972000  0.30852000  1.0
  H  H410  1  0.77560000  0.05508000  0.00613000  1.0
  H  H411  1  0.75704000  0.13694000  0.01397000  1.0
  H  H412  1  0.86324000  0.10980000  0.99767000  1.0
  H  H413  1  0.87758000  0.02988000  0.98715000  1.0
  H  H414  1  0.90552000  0.07874000  0.04802000  1.0
  H  H415  1  0.89292000  0.05300000  0.10282000  1.0
  H  H416  1  0.93536000  0.96644000  0.10003000  1.0
  H  H417  1  0.85182000  0.00892000  0.11579500  1.0
  H  H418  1  0.72434000  0.17382000  0.07043000  1.0
  H  H419  1  0.80876000  0.15098000  0.07054000  1.0
  H  H420  1  0.77104000  0.12544000  0.10343000  1.0
  H  H421  1  0.71954000  0.24750000  0.67755000  1.0
  H  H422  1  0.70474000  0.29596000  0.64064500  1.0
  H  H423  1  0.79600000  0.21114000  0.61317000  1.0
  H  H424  1  0.78658000  0.16198000  0.64528000  1.0
  H  H425  1  0.88426000  0.20746000  0.63221000  1.0
  H  H426  1  0.89654000  0.27977000  0.70796000  1.0
  H  H427  1  0.90962000  0.27828000  0.66365000  1.0
  H  H428  1  0.94856000  0.20556000  0.68713000  1.0
  H  H429  1  0.73658000  0.38094000  0.63788000  1.0
  H  H430  1  0.81384000  0.31482000  0.62340000  1.0
  H  H431  1  0.81004000  0.36850000  0.65481000  1.0
  H  H432  1  0.91245000  0.41013000  0.36185000  1.0
  H  H433  1  0.92586000  0.43546000  0.32200000  1.0
  H  H434  1  0.91418000  0.35364000  0.29830000  1.0
  H  H435  1  0.88268000  0.34476000  0.33829000  1.0
  H  H436  1  0.01364000  0.26516000  0.30159000  1.0
  H  H437  1  0.13780000  0.24566000  0.35691000  1.0
  H  H438  1  0.12164000  0.22840000  0.31683000  1.0
  H  H439  1  0.11474000  0.18412000  0.35171000  1.0
  H  H440  1  0.03868000  0.41318000  0.30378000  1.0
  H  H441  1  0.03006000  0.34918000  0.28732000  1.0
  H  H442  1  0.10344000  0.33052000  0.30611000  1.0
  H  H443  1  0.32320000  0.18604000  0.02650000  1.0
  H  H444  1  0.36388000  0.17392000  0.98693000  1.0
  H  H445  1  0.27226000  0.18380000  0.96309000  1.0
  H  H446  1  0.23022000  0.21168000  0.00260000  1.0
  H  H447  1  0.28700000  0.08216000  0.96820000  1.0
  H  H448  1  0.38598000  0.96030000  0.02785000  1.0
  H  H449  1  0.35656000  0.97522000  0.98697000  1.0
  H  H450  1  0.30304000  0.97984000  0.02132000  1.0
  H  H451  1  0.45638000  0.06388000  0.97266000  1.0
  H  H452  1  0.38674000  0.06878000  0.95541000  1.0
  H  H453  1  0.44020000  0.99708000  0.97686000  1.0
  H  H454  1  0.47991000  0.76601000  0.68520000  1.0
  H  H455  1  0.49648000  0.73556000  0.64385500  1.0
  H  H456  1  0.40862000  0.83122000  0.62751000  1.0
  H  H457  1  0.39848000  0.86100000  0.66873000  1.0
  H  H458  1  0.33396000  0.79690000  0.63527000  1.0
  H  H459  1  0.32256000  0.68676000  0.69658000  1.0
  H  H460  1  0.30510000  0.72044000  0.65627000  1.0
  H  H461  1  0.25724000  0.76834000  0.69112000  1.0
  H  H462  1  0.49080000  0.63660000  0.63692000  1.0
  H  H463  1  0.41206000  0.69513000  0.62413000  1.0
  H  H464  1  0.42014000  0.63176000  0.65252000  1.0
  N  N465  1  0.11820000  0.08774000  0.98436000  1.0
  N  N466  1  0.02496000  0.06954000  0.93157000  1.0
  N  N467  1  0.07168000  0.98008000  0.99270000  1.0
  N  N468  1  0.17528000  0.97912000  0.92824000  1.0
  N  N469  1  0.11636000  0.91374000  0.58972000  1.0
  N  N470  1  0.01358000  0.02446000  0.64398000  1.0
  N  N471  1  0.09622000  0.05420000  0.58659000  1.0
  N  N472  1  0.17018000  0.96038000  0.64878000  1.0
  N  N473  1  0.98842000  0.01600000  0.26527000  1.0
  N  N474  1  0.99362000  0.11208000  0.32084000  1.0
  N  N475  1  0.10554000  0.04128000  0.26259000  1.0
  N  N476  1  0.08838000  0.95662000  0.32437000  1.0
