# generated using pymatgen
data_PrC15I3(N2O3)3
_symmetry_space_group_name_H-M   'P 1'
_cell_length_a   21.74970000
_cell_length_b   21.95975000
_cell_length_c   22.96950000
_cell_angle_alpha   89.41700000
_cell_angle_beta   88.84500000
_cell_angle_gamma   87.47100000
_symmetry_Int_Tables_number   1
_chemical_formula_structural   PrC15I3(N2O3)3
_chemical_formula_sum   'Pr8 C120 I24 N48 O72'
_cell_volume   10957.26049161
_cell_formula_units_Z   8
loop_
 _symmetry_equiv_pos_site_id
 _symmetry_equiv_pos_as_xyz
  1  'x, y, z'
loop_
 _atom_site_type_symbol
 _atom_site_label
 _atom_site_symmetry_multiplicity
 _atom_site_fract_x
 _atom_site_fract_y
 _atom_site_fract_z
 _atom_site_occupancy
  C  C0  1  0.84582500  0.84517000  0.26123000  1.0
  C  C1  1  0.78906000  0.86941000  0.24044000  1.0
  C  C2  1  0.76632000  0.84998500  0.18656000  1.0
  C  C3  1  0.80176000  0.80718000  0.15276000  1.0
  C  C4  1  0.85921000  0.78341000  0.17284000  1.0
  C  C5  1  0.88076000  0.80233000  0.22730000  1.0
  C  C6  1  0.18828000  0.30193500  0.28394000  1.0
  C  C7  1  0.25155000  0.30190000  0.29518000  1.0
  C  C8  1  0.27194000  0.28722000  0.35136000  1.0
  C  C9  1  0.22968000  0.27402000  0.39642000  1.0
  C  C10  1  0.16615000  0.27732000  0.38550000  1.0
  C  C11  1  0.14534000  0.29002000  0.32886000  1.0
  C  C12  1  0.62522000  0.20000000  0.66707000  1.0
  C  C13  1  0.66405250  0.15530000  0.63913000  1.0
  C  C14  1  0.68550750  0.10314000  0.67000500  1.0
  C  C15  1  0.66629750  0.09377750  0.72835250  1.0
  C  C16  1  0.62402000  0.13576250  0.75571000  1.0
  C  C17  1  0.60388750  0.18934750  0.72505250  1.0
  C  C18  1  0.28930750  0.66370500  0.79534250  1.0
  C  C19  1  0.24718750  0.61823000  0.80993500  1.0
  C  C20  1  0.22261000  0.61524250  0.86703500  1.0
  C  C21  1  0.24024500  0.65615750  0.90983500  1.0
  C  C22  1  0.27810000  0.70390750  0.89395750  1.0
  C  C23  1  0.29909000  0.71002750  0.83590000  1.0
  C  C24  1  0.09368000  0.10260000  0.79004250  1.0
  C  C25  1  0.14502000  0.07402000  0.81717250  1.0
  C  C26  1  0.17722750  0.10518000  0.86007500  1.0
  C  C27  1  0.15416250  0.16300000  0.87954250  1.0
  C  C28  1  0.10014000  0.19006000  0.85517500  1.0
  C  C29  1  0.06966000  0.15904000  0.81132000  1.0
  C  C30  1  0.63779250  0.68636000  0.71920000  1.0
  C  C31  1  0.65782000  0.72872000  0.67782000  1.0
  C  C32  1  0.71211000  0.75872000  0.68772000  1.0
  C  C33  1  0.73535500  0.76002000  0.74482000  1.0
  C  C34  1  0.70716000  0.72580000  0.78952000  1.0
  C  C35  1  0.65811000  0.68910000  0.77646000  1.0
  C  C36  1  0.35565000  0.81729750  0.29009750  1.0
  C  C37  1  0.30694250  0.85237250  0.31624250  1.0
  C  C38  1  0.28954000  0.84211500  0.37477750  1.0
  C  C39  1  0.31571500  0.79160000  0.40553750  1.0
  C  C40  1  0.35926000  0.75055000  0.37758750  1.0
  C  C41  1  0.38146250  0.76564000  0.32055750  1.0
  C  C42  1  0.74911750  0.33283750  0.22675250  1.0
  C  C43  1  0.79433250  0.33837000  0.18228000  1.0
  C  C44  1  0.78971000  0.30722500  0.12910000  1.0
  C  C45  1  0.74404750  0.26363250  0.12356000  1.0
  C  C46  1  0.70038250  0.25596250  0.16902000  1.0
  C  C47  1  0.70354250  0.28941250  0.22093250  1.0
  C  C48  1  0.87044250  0.44927000  0.98574000  1.0
  C  C49  1  0.01549750  0.38870750  0.92822000  1.0
  C  C50  1  0.07566000  0.41108000  0.13578000  1.0
  C  C51  1  0.08394000  0.50694250  0.98694000  1.0
  C  C52  1  0.94174000  0.60483000  0.06202000  1.0
  C  C53  1  0.85485750  0.61534500  0.90585000  1.0
  C  C54  1  0.03090000  0.97824000  0.62493500  1.0
  C  C55  1  0.10665250  0.94242000  0.46794500  1.0
  C  C56  1  0.01709250  0.16544000  0.48952000  1.0
  C  C57  1  0.93180250  0.95524000  0.42427000  1.0
  C  C58  1  0.86802000  0.00614000  0.57562250  1.0
  C  C59  1  0.88201250  0.82906000  0.57162000  1.0
  C  C60  1  0.51168000  0.37812250  0.58419750  1.0
  C  C61  1  0.43562500  0.39378000  0.43184000  1.0
  C  C62  1  0.66394000  0.44507250  0.39168500  1.0
  C  C63  1  0.47882000  0.56688000  0.44792250  1.0
  C  C64  1  0.57098000  0.53314000  0.59066000  1.0
  C  C65  1  0.39590000  0.56813750  0.63183500  1.0
  C  C66  1  0.41673500  0.94325250  0.12133000  1.0
  C  C67  1  0.36604000  0.01965750  0.95275750  1.0
  C  C68  1  0.42126750  0.82216250  0.99534750  1.0
  C  C69  1  0.54964500  0.02212500  0.92469500  1.0
  C  C70  1  0.58518000  0.93956250  0.08423750  1.0
  C  C71  1  0.53812250  0.12386000  0.10668750  1.0
  C  C72  1  0.89864000  0.74112000  0.13616000  1.0
  C  C73  1  0.93416000  0.66465000  0.09086000  1.0
  C  C74  1  0.12120000  0.26298000  0.43148000  1.0
  C  C75  1  0.05302500  0.21750000  0.47564000  1.0
  C  C76  1  0.60920000  0.25816000  0.63554250  1.0
  C  C77  1  0.56084000  0.33294000  0.59884250  1.0
  C  C78  1  0.30422000  0.74139250  0.93910000  1.0
  C  C79  1  0.36796750  0.78596750  0.98712250  1.0
  C  C80  1  0.86716000  0.86146000  0.32008000  1.0
  C  C81  1  0.90510000  0.90750500  0.38913750  1.0
  C  C82  1  0.16628000  0.32178000  0.22710000  1.0
  C  C83  1  0.12014000  0.37156000  0.16418000  1.0
  C  C84  1  0.60096750  0.12196750  0.81587000  1.0
  C  C85  1  0.57078250  0.07313500  0.88882750  1.0
  C  C86  1  0.33270250  0.65616000  0.74494750  1.0
  C  C87  1  0.37938250  0.61424000  0.67502000  1.0
  C  C88  1  0.70266250  0.86954000  0.16945000  1.0
  C  C89  1  0.62654250  0.91012500  0.12736250  1.0
  C  C90  1  0.72831750  0.05802750  0.64126250  1.0
  C  C91  1  0.80640750  0.01710000  0.60172500  1.0
  C  C92  1  0.18621000  0.56379750  0.88535750  1.0
  C  C93  1  0.12676250  0.51703000  0.93921250  1.0
  C  C94  1  0.33455500  0.30046000  0.36654000  1.0
  C  C95  1  0.40444000  0.35090000  0.39704000  1.0
  C  C96  1  0.08383750  0.25594000  0.86321250  1.0
  C  C97  1  0.04528000  0.33911750  0.89321500  1.0
  C  C98  1  0.75303000  0.76880000  0.63692000  1.0
  C  C99  1  0.82778000  0.79660000  0.58776000  1.0
  C  C100  1  0.37874000  0.69160000  0.40768750  1.0
  C  C101  1  0.42923250  0.61396000  0.43778750  1.0
  C  C102  1  0.64106250  0.23011250  0.15540000  1.0
  C  C103  1  0.57250000  0.17377750  0.12959500  1.0
  C  C104  1  0.07410000  0.08170500  0.73202000  1.0
  C  C105  1  0.04902250  0.02898000  0.66159250  1.0
  C  C106  1  0.74322000  0.70826000  0.84040000  1.0
  C  C107  1  0.80661750  0.66007000  0.89060000  1.0
  C  C108  1  0.37834250  0.83593250  0.23092250  1.0
  C  C109  1  0.40178250  0.88999250  0.15857500  1.0
  C  C110  1  0.74191750  0.38131750  0.27152000  1.0
  C  C111  1  0.70612250  0.43032000  0.34299750  1.0
  C  C112  1  0.24132000  0.08315500  0.87258750  1.0
  C  C113  1  0.32012000  0.04475750  0.91165500  1.0
  C  C114  1  0.24677500  0.88752000  0.40382750  1.0
  C  C115  1  0.16825500  0.93034000  0.44156250  1.0
  C  C116  1  0.82322250  0.33073750  0.07702500  1.0
  C  C117  1  0.85350500  0.39239750  0.01422000  1.0
  C  C118  1  0.62695500  0.62588000  0.69660000  1.0
  C  C119  1  0.60378000  0.56302000  0.63531000  1.0
  I  I120  1  0.76816250  0.77793750  0.07130000  1.0
  I  I121  1  0.96663500  0.76538000  0.25948000  1.0
  I  I122  1  0.73726000  0.93555750  0.29150000  1.0
  I  I123  1  0.26392000  0.24474000  0.47964000  1.0
  I  I124  1  0.04818000  0.29198000  0.31102000  1.0
  I  I125  1  0.31514000  0.33613000  0.23060000  1.0
  I  I126  1  0.70770500  0.01901000  0.77731000  1.0
  I  I127  1  0.54059750  0.25392250  0.76605250  1.0
  I  I128  1  0.68461250  0.16136000  0.54730250  1.0
  I  I129  1  0.21742750  0.64008000  0.00041500  1.0
  I  I130  1  0.34063750  0.79286000  0.80854000  1.0
  I  I131  1  0.21865750  0.55252750  0.74829500  1.0
  I  I132  1  0.20456250  0.21285750  0.94051000  1.0
  I  I133  1  0.98470000  0.19706000  0.77786000  1.0
  I  I134  1  0.17533500  0.98348750  0.79200500  1.0
  I  I135  1  0.81820000  0.80506000  0.76358000  1.0
  I  I136  1  0.62084000  0.62880000  0.84052000  1.0
  I  I137  1  0.61260000  0.73964000  0.59610000  1.0
  I  I138  1  0.29444750  0.78358250  0.49690750  1.0
  I  I139  1  0.45470500  0.71157250  0.28035750  1.0
  I  I140  1  0.25273750  0.91632250  0.26465750  1.0
  I  I141  1  0.73402250  0.21336000  0.04471250  1.0
  I  I142  1  0.63477000  0.27494000  0.28788250  1.0
  I  I143  1  0.87346000  0.39036250  0.19792500  1.0
  N  N144  1  0.95508000  0.75482000  0.11620000  1.0
  N  N145  1  0.97739500  0.70659000  0.08742000  1.0
  N  N146  1  0.12024000  0.28410000  0.48642000  1.0
  N  N147  1  0.07728000  0.25416000  0.51496000  1.0
  N  N148  1  0.65020000  0.28943500  0.60368000  1.0
  N  N149  1  0.61954000  0.33662000  0.58022750  1.0
  N  N150  1  0.27194500  0.77030250  0.98202750  1.0
  N  N151  1  0.31256750  0.79924000  0.01230250  1.0
  N  N152  1  0.86880000  0.82239000  0.36574000  1.0
  N  N153  1  0.89268000  0.85162000  0.40952000  1.0
  N  N154  1  0.19010000  0.30208000  0.17576000  1.0
  N  N155  1  0.16052000  0.33416000  0.13536000  1.0
  N  N156  1  0.59790500  0.16121000  0.86082500  1.0
  N  N157  1  0.57819500  0.13034000  0.90707750  1.0
  N  N158  1  0.39164250  0.67275500  0.74662000  1.0
  N  N159  1  0.42124250  0.64624000  0.70228000  1.0
  N  N160  1  0.65264000  0.85666500  0.20201000  1.0
  N  N161  1  0.60459250  0.88209250  0.17530000  1.0
  N  N162  1  0.71797500  0.99814250  0.63812250  1.0
  N  N163  1  0.76765000  0.97216000  0.61324250  1.0
  N  N164  1  0.21122250  0.50690500  0.89096000  1.0
  N  N165  1  0.17334000  0.47712250  0.92540000  1.0
  N  N166  1  0.38646000  0.27870000  0.33952000  1.0
  N  N167  1  0.43151000  0.31080000  0.35955000  1.0
  N  N168  1  0.08910250  0.29632000  0.81912750  1.0
  N  N169  1  0.06496250  0.34878000  0.83810000  1.0
  N  N170  1  0.76416000  0.72640000  0.59538000  1.0
  N  N171  1  0.81177000  0.74420000  0.56390000  1.0
  N  N172  1  0.34037500  0.65937500  0.44166750  1.0
  N  N173  1  0.37222250  0.61080000  0.46097750  1.0
  N  N174  1  0.59014250  0.26623750  0.14862250  1.0
  N  N175  1  0.54678250  0.23053750  0.13222000  1.0
  N  N176  1  0.07397500  0.11847000  0.68474000  1.0
  N  N177  1  0.05793500  0.08517250  0.64042000  1.0
  N  N178  1  0.74441500  0.73814000  0.89128000  1.0
  N  N179  1  0.78528000  0.70719000  0.92350000  1.0
  N  N180  1  0.38871500  0.79769250  0.18595250  1.0
  N  N181  1  0.40414750  0.83177250  0.14048500  1.0
  N  N182  1  0.74667250  0.44097000  0.25842000  1.0
  N  N183  1  0.72384000  0.47197750  0.30354000  1.0
  N  N184  1  0.28268250  0.07086250  0.82944250  1.0
  N  N185  1  0.33226000  0.04642000  0.85406750  1.0
  N  N186  1  0.25597500  0.94780000  0.40287750  1.0
  N  N187  1  0.20629000  0.97489250  0.42670000  1.0
  N  N188  1  0.84337250  0.29757000  0.03081500  1.0
  N  N189  1  0.86263000  0.33671750  0.99088500  1.0
  N  N190  1  0.67154500  0.58116000  0.69705000  1.0
  N  N191  1  0.65646000  0.54071500  0.65830000  1.0
  O  O192  1  0.90740000  0.48595750  0.00696000  1.0
  O  O193  1  0.87191500  0.45898000  0.93070000  1.0
  O  O194  1  0.01057500  0.38173000  0.98674000  1.0
  O  O195  1  0.99913500  0.43950000  0.89742000  1.0
  O  O196  1  0.01654000  0.40472000  0.14072000  1.0
  O  O197  1  0.09067000  0.44442000  0.09120000  1.0
  O  O198  1  0.02559500  0.51964000  0.98796000  1.0
  O  O199  1  0.09725000  0.47373500  0.03249000  1.0
  O  O200  1  0.92553000  0.60363000  0.00490000  1.0
  O  O201  1  0.97060000  0.55885000  0.09220000  1.0
  O  O202  1  0.87054250  0.56984000  0.87108000  1.0
  O  O203  1  0.88920000  0.61801000  0.95247250  1.0
  O  O204  1  0.01614750  0.98170000  0.57070500  1.0
  O  O205  1  0.02462000  0.92182000  0.64150000  1.0
  O  O206  1  0.08281500  0.00025750  0.46204000  1.0
  O  O207  1  0.08026250  0.89548750  0.49630500  1.0
  O  O208  1  0.02992250  0.13022000  0.53385250  1.0
  O  O209  1  0.98822250  0.13709750  0.44938500  1.0
  O  O210  1  0.95001500  0.95214000  0.47689750  1.0
  O  O211  1  0.94056500  0.01061500  0.40822000  1.0
  O  O212  1  0.89160000  0.94790000  0.58048500  1.0
  O  O213  1  0.89460000  0.05282000  0.54793000  1.0
  O  O214  1  0.92881500  0.80597250  0.54023000  1.0
  O  O215  1  0.88942750  0.88484000  0.59054750  1.0
  O  O216  1  0.51237500  0.41708250  0.54149000  1.0
  O  O217  1  0.46154000  0.38961750  0.61534750  1.0
  O  O218  1  0.49362000  0.40644000  0.41560000  1.0
  O  O219  1  0.40270000  0.41472000  0.47862000  1.0
  O  O220  1  0.64928000  0.40630000  0.43258500  1.0
  O  O221  1  0.62679500  0.49335250  0.39160500  1.0
  O  O222  1  0.48040000  0.52562000  0.48772250  1.0
  O  O223  1  0.52730000  0.55488000  0.41566750  1.0
  O  O224  1  0.51022000  0.52692000  0.60257000  1.0
  O  O225  1  0.60334000  0.51461000  0.54296750  1.0
  O  O226  1  0.35628250  0.54311000  0.59758500  1.0
  O  O227  1  0.45258000  0.54420000  0.62693500  1.0
  O  O228  1  0.44290750  0.93888500  0.06841250  1.0
  O  O229  1  0.41335250  0.99970500  0.14072500  1.0
  O  O230  1  0.40128000  0.97212500  0.93328500  1.0
  O  O231  1  0.37602000  0.05042000  0.00165750  1.0
  O  O232  1  0.41820750  0.87003000  0.02806250  1.0
  O  O233  1  0.46401750  0.82615250  0.95522000  1.0
  O  O234  1  0.51821250  0.02661250  0.97422000  1.0
  O  O235  1  0.55165500  0.96657500  0.90448750  1.0
  O  O236  1  0.55655750  0.99358000  0.09894750  1.0
  O  O237  1  0.56973500  0.90472500  0.03946000  1.0
  O  O238  1  0.48725750  0.13721750  0.07863250  1.0
  O  O239  1  0.55183250  0.06423750  0.11148750  1.0
  O  O240  1  0.88520250  0.68556000  0.12054000  1.0
  O  O241  1  0.08046000  0.22208000  0.42506000  1.0
  O  O242  1  0.55402000  0.28508750  0.63294500  1.0
  O  O243  1  0.36291500  0.75126000  0.94182250  1.0
  O  O244  1  0.88936500  0.91404000  0.33420000  1.0
  O  O245  1  0.12312000  0.36430000  0.22022000  1.0
  O  O246  1  0.58442750  0.06790750  0.83319250  1.0
  O  O247  1  0.32544000  0.61966000  0.70106000  1.0
  O  O248  1  0.68697250  0.90195750  0.12278000  1.0
  O  O249  1  0.78258000  0.07015750  0.61867250  1.0
  O  O250  1  0.13459750  0.57040750  0.91542750  1.0
  O  O251  1  0.34544500  0.34456000  0.40164000  1.0
  O  O252  1  0.05677250  0.28182750  0.90938000  1.0
  O  O253  1  0.79230250  0.81188500  0.63240000  1.0
  O  O254  1  0.43365500  0.66330000  0.40486750  1.0
  O  O255  1  0.63106500  0.17279250  0.14319500  1.0
  O  O256  1  0.05922000  0.02614750  0.71802250  1.0
  O  O257  1  0.78113500  0.66068000  0.83986000  1.0
  O  O258  1  0.38617750  0.89279250  0.21414000  1.0
  O  O259  1  0.71653250  0.37481250  0.32343750  1.0
  O  O260  1  0.26415750  0.06767000  0.92387500  1.0
  O  O261  1  0.19273500  0.87630500  0.42766250  1.0
  O  O262  1  0.82979000  0.38908250  0.06690000  1.0
  O  O263  1  0.58528000  0.61500000  0.65838000  1.0
  Pr  Pr264  1  0.99181500  0.45995000  0.05662000  1.0
  Pr  Pr265  1  0.95059000  0.53288000  0.92646750  1.0
  Pr  Pr266  1  0.98803250  0.04348000  0.49698750  1.0
  Pr  Pr267  1  0.98509250  0.89240000  0.54890000  1.0
  Pr  Pr268  1  0.56230000  0.46223250  0.46743750  1.0
  Pr  Pr269  1  0.42962000  0.47564000  0.55644000  1.0
  Pr  Pr270  1  0.48867250  0.92583750  0.97582500  1.0
  Pr  Pr271  1  0.46414250  0.03986750  0.06009250  1.0
