# generated using pymatgen
data_CoH16C20(N3O2)2
_symmetry_space_group_name_H-M   'P 1'
_cell_length_a   17.31335360
_cell_length_b   18.01960000
_cell_length_c   20.72770000
_cell_angle_alpha   88.16900000
_cell_angle_beta   87.97184161
_cell_angle_gamma   64.05995435
_symmetry_Int_Tables_number   1
_chemical_formula_structural   CoH16C20(N3O2)2
_chemical_formula_sum   'Co3 H48 C60 N18 O12'
_cell_volume   5810.50531974
_cell_formula_units_Z   3
loop_
 _symmetry_equiv_pos_site_id
 _symmetry_equiv_pos_as_xyz
  1  'x, y, z'
loop_
 _atom_site_type_symbol
 _atom_site_label
 _atom_site_symmetry_multiplicity
 _atom_site_fract_x
 _atom_site_fract_y
 _atom_site_fract_z
 _atom_site_occupancy
  C  C0  1  0.43418000  0.52264000  0.70756000  1.0
  C  C1  1  0.46128000  0.65670000  0.84618000  1.0
  C  C2  1  0.41790000  0.56682000  0.87914000  1.0
  C  C3  1  0.39380000  0.62800000  0.92442000  1.0
  C  C4  1  0.65816000  0.49962000  0.72228000  1.0
  C  C5  1  0.59466000  0.36414000  0.85224000  1.0
  C  C6  1  0.64106000  0.44866000  0.88540000  1.0
  C  C7  1  0.65994000  0.38558000  0.93052000  1.0
  C  C8  1  0.15522000  0.52148000  0.56574000  1.0
  C  C9  1  0.97882000  0.62576000  0.41282000  1.0
  C  C10  1  0.10910000  0.60480000  0.42652000  1.0
  C  C11  1  0.07574000  0.66138000  0.37648000  1.0
  C  C12  1  0.94948000  0.50454000  0.58404000  1.0
  C  C13  1  0.10384000  0.38966000  0.41918000  1.0
  C  C14  1  0.97830000  0.41020000  0.45478000  1.0
  C  C15  1  0.00640000  0.34700000  0.41116000  1.0
  C  C16  1  0.49550000  0.91302000  0.04644000  1.0
  C  C17  1  0.39370000  0.07944000  0.20126000  1.0
  C  C18  1  0.39118000  0.96678000  0.17466000  1.0
  C  C19  1  0.32484000  0.00626000  0.21820000  1.0
  C  C20  1  0.56486000  0.08550000  0.05006000  1.0
  C  C21  1  0.67636000  0.91524000  0.17972000  1.0
  C  C22  1  0.59904000  0.03634000  0.21596000  1.0
  C  C23  1  0.66884000  0.99746000  0.25498000  1.0
  C  C24  1  0.44106000  0.87440000  0.95010000  1.0
  C  C25  1  0.47228000  0.85390000  0.01314000  1.0
  C  C26  1  0.48138000  0.77714000  0.04144000  1.0
  C  C27  1  0.46086000  0.72396000  0.00510000  1.0
  C  C28  1  0.43236000  0.74406000  0.94178000  1.0
  C  C29  1  0.42250000  0.81972000  0.91456000  1.0
  C  C30  1  0.28534000  0.59340000  0.66830000  1.0
  C  C31  1  0.36662000  0.52578000  0.66500000  1.0
  C  C32  1  0.37972000  0.45812000  0.62580000  1.0
  C  C33  1  0.31022000  0.45904000  0.59226000  1.0
  C  C34  1  0.22818000  0.52520000  0.59776000  1.0
  C  C35  1  0.21644000  0.59288000  0.63534000  1.0
  C  C36  1  0.91490000  0.81640000  0.33078000  1.0
  C  C37  1  0.93180000  0.73318000  0.32630000  1.0
  C  C38  1  0.88100000  0.71122000  0.28604000  1.0
  C  C39  1  0.81148000  0.77370000  0.25422000  1.0
  C  C40  1  0.79236000  0.85736000  0.26116000  1.0
  C  C41  1  0.84590000  0.87784000  0.29872000  1.0
  C  C42  1  0.60952000  0.13750000  0.95000000  1.0
  C  C43  1  0.59078000  0.14532000  0.01664000  1.0
  C  C44  1  0.59166000  0.21344000  0.04884000  1.0
  C  C45  1  0.60706000  0.27330000  0.01296000  1.0
  C  C46  1  0.62218000  0.26694000  0.94606000  1.0
  C  C47  1  0.62424000  0.19800000  0.91498000  1.0
  C  C48  1  0.86588000  0.43002000  0.62422000  1.0
  C  C49  1  0.88056000  0.50072000  0.62530000  1.0
  C  C50  1  0.82388000  0.56988000  0.66094000  1.0
  C  C51  1  0.75268000  0.56718000  0.69336000  1.0
  C  C52  1  0.73618000  0.49776000  0.69008000  1.0
  C  C53  1  0.79356000  0.42888000  0.65572000  1.0
  C  C54  1  0.23830000  0.22320000  0.25586000  1.0
  C  C55  1  0.26636000  0.14028000  0.27596000  1.0
  C  C56  1  0.23292000  0.12230000  0.33488000  1.0
  C  C57  1  0.16904000  0.18734000  0.36956000  1.0
  C  C58  1  0.14266000  0.26946000  0.34920000  1.0
  C  C59  1  0.17826000  0.28710000  0.29270000  1.0
  Co  Co60  1  0.53888000  0.51048000  0.76790000  1.0
  Co  Co61  1  0.04856000  0.51146000  0.52084000  1.0
  Co  Co62  1  0.52512000  0.99924000  0.10056000  1.0
  H  H63  1  0.49838000  0.68346000  0.81988000  1.0
  H  H64  1  0.41192000  0.50964000  0.88436000  1.0
  H  H65  1  0.36446000  0.62772000  0.97136000  1.0
  H  H66  1  0.55944000  0.33948000  0.82478000  1.0
  H  H67  1  0.65176000  0.50306000  0.88984000  1.0
  H  H68  1  0.68946000  0.38108000  0.97656000  1.0
  H  H69  1  0.91754000  0.62374000  0.42006000  1.0
  H  H70  1  0.17296000  0.58270000  0.44532000  1.0
  H  H71  1  0.10796000  0.69246000  0.34938000  1.0
  H  H72  1  0.16482000  0.39276000  0.41398000  1.0
  H  H73  1  0.91812000  0.43326000  0.48176000  1.0
  H  H74  1  0.97314000  0.31110000  0.39808000  1.0
  H  H75  1  0.40920000  0.13138000  0.20108000  1.0
  H  H76  1  0.40272000  0.91086000  0.15040000  1.0
  H  H77  1  0.27610000  0.98672000  0.23362000  1.0
  H  H78  1  0.69830000  0.86128000  0.14988000  1.0
  H  H79  1  0.54800000  0.09740000  0.22272000  1.0
  H  H80  1  0.68132000  0.02244000  0.29806000  1.0
  H  H81  1  0.43338000  0.93210000  0.92732000  1.0
  H  H82  1  0.40122000  0.83604000  0.86540000  1.0
  H  H83  1  0.52172000  0.78812000  0.13518000  1.0
  H  H84  1  0.51450000  0.69598000  0.12154000  1.0
  H  H85  1  0.46976000  0.66484000  0.02578000  1.0
  H  H86  1  0.27432000  0.64522000  0.69852000  1.0
  H  H87  1  0.15376000  0.64480000  0.64010000  1.0
  H  H88  1  0.51250000  0.38922000  0.64200000  1.0
  H  H89  1  0.46692000  0.34266000  0.59078000  1.0
  H  H90  1  0.32004000  0.40680000  0.56286000  1.0
  H  H91  1  0.95320000  0.83402000  0.36150000  1.0
  H  H92  1  0.83364000  0.94160000  0.30412000  1.0
  H  H93  1  0.95192000  0.58210000  0.29686000  1.0
  H  H94  1  0.86034000  0.61516000  0.24774000  1.0
  H  H95  1  0.77098000  0.75684000  0.22526000  1.0
  H  H96  1  0.60946000  0.08602000  0.92442000  1.0
  H  H97  1  0.63618000  0.19152000  0.86338000  1.0
  H  H98  1  0.57330000  0.17772000  0.14390000  1.0
  H  H99  1  0.57982000  0.27278000  0.13666000  1.0
  H  H100  1  0.60512000  0.32634000  0.03740000  1.0
  H  H101  1  0.90862000  0.37674000  0.59686000  1.0
  H  H102  1  0.78230000  0.37450000  0.65290000  1.0
  H  H103  1  0.89022000  0.64336000  0.64348000  1.0
  H  H104  1  0.79454000  0.68952000  0.69126000  1.0
  H  H105  1  0.70894000  0.62050000  0.72028000  1.0
  H  H106  1  0.26282000  0.23862000  0.21124000  1.0
  H  H107  1  0.15882000  0.35050000  0.27692000  1.0
  H  H108  1  0.31814000  0.99536000  0.34166000  1.0
  H  H109  1  0.23866000  0.03248000  0.40394000  1.0
  H  H110  1  0.14318000  0.17450000  0.41466000  1.0
  N  N111  1  0.63034000  0.33276000  0.90962000  1.0
  N  N112  1  0.59988000  0.43502000  0.83658000  1.0
  N  N113  1  0.42158000  0.68412000  0.90356000  1.0
  N  N114  1  0.46094000  0.58482000  0.83054000  1.0
  N  N115  1  0.08482000  0.33508000  0.38884000  1.0
  N  N116  1  0.04026000  0.43592000  0.46040000  1.0
  N  N117  1  0.99440000  0.67320000  0.36770000  1.0
  N  N118  1  0.04766000  0.58316000  0.44938000  1.0
  N  N119  1  0.71718000  0.92118000  0.23220000  1.0
  N  N120  1  0.60406000  0.98462000  0.16874000  1.0
  N  N121  1  0.32772000  0.07625500  0.23586000  1.0
  N  N122  1  0.43484000  0.01266000  0.16410000  1.0
  N  N123  1  0.50824000  0.75284000  0.10282000  1.0
  N  N124  1  0.45804000  0.39242000  0.61964000  1.0
  N  N125  1  0.89854000  0.63096000  0.27708000  1.0
  N  N126  1  0.57962000  0.22200000  0.11378000  1.0
  N  N127  1  0.83706000  0.63866000  0.66496000  1.0
  N  N128  1  0.26432000  0.04468000  0.36074000  1.0
  O  O129  1  0.47182000  0.57364000  0.70204000  1.0
  O  O130  1  0.46574000  0.46516000  0.75402000  1.0
  O  O131  1  0.62284000  0.44884000  0.70928000  1.0
  O  O132  1  0.61384000  0.55596000  0.76614000  1.0
  O  O133  1  0.07296000  0.57420000  0.57708000  1.0
  O  O134  1  0.16534000  0.46370000  0.52296000  1.0
  O  O135  1  0.03258000  0.45180000  0.58894000  1.0
  O  O136  1  0.93310000  0.55990000  0.53582000  1.0
  O  O137  1  0.45762000  0.99508000  0.03566000  1.0
  O  O138  1  0.55328000  0.89034000  0.09280000  1.0
  O  O139  1  0.60338000  0.00390000  0.04036000  1.0
  O  O140  1  0.49912000  0.10852000  0.09254000  1.0
