# generated using pymatgen
data_CoH10(C3O)5
_symmetry_space_group_name_H-M   'P 1'
_cell_length_a   23.43862129
_cell_length_b   24.19545000
_cell_length_c   26.19060000
_cell_angle_alpha   90.72900000
_cell_angle_beta   90.69071099
_cell_angle_gamma   116.80298025
_symmetry_Int_Tables_number   1
_chemical_formula_structural   CoH10(C3O)5
_chemical_formula_sum   'Co6 H60 C90 O30'
_cell_volume   13253.43081593
_cell_formula_units_Z   6
loop_
 _symmetry_equiv_pos_site_id
 _symmetry_equiv_pos_as_xyz
  1  'x, y, z'
loop_
 _atom_site_type_symbol
 _atom_site_label
 _atom_site_symmetry_multiplicity
 _atom_site_fract_x
 _atom_site_fract_y
 _atom_site_fract_z
 _atom_site_occupancy
  C  C0  1  0.51754000  0.40842000  0.10545000  1.0
  C  C1  1  0.57666000  0.46650000  0.22829000  1.0
  C  C2  1  0.48986000  0.58260000  0.11624000  1.0
  C  C3  1  0.41268000  0.43850000  0.22393000  1.0
  C  C4  1  0.91316000  0.37352000  0.55333000  1.0
  C  C5  1  0.91028000  0.44194000  0.43772000  1.0
  C  C6  1  0.09780000  0.52746000  0.56823000  1.0
  C  C7  1  0.04236000  0.40686000  0.43096000  1.0
  C  C8  1  0.40462000  0.88716000  0.78216000  1.0
  C  C9  1  0.47220000  0.90194000  0.90107000  1.0
  C  C10  1  0.56382000  0.04366000  0.74644000  1.0
  C  C11  1  0.44040000  0.03108000  0.89354000  1.0
  C  C12  1  0.45622000  0.08726000  0.92554000  1.0
  C  C13  1  0.40918000  0.09248000  0.95510000  1.0
  C  C14  1  0.42414000  0.14534000  0.98532000  1.0
  C  C15  1  0.48658000  0.19414000  0.98697000  1.0
  C  C16  1  0.53386000  0.18880000  0.95792000  1.0
  C  C17  1  0.51880000  0.13608000  0.92732000  1.0
  C  C18  1  0.51842000  0.35538000  0.07785000  1.0
  C  C19  1  0.48694000  0.29582000  0.09789000  1.0
  C  C20  1  0.47894000  0.24408000  0.06879000  1.0
  C  C21  1  0.50140000  0.25052000  0.01866000  1.0
  C  C22  1  0.53438000  0.31062000  0.99863000  1.0
  C  C23  1  0.54390000  0.36258000  0.02881000  1.0
  C  C24  1  0.50980000  0.31976000  0.91613000  1.0
  C  C25  1  0.36136000  0.44604000  0.24974000  1.0
  C  C26  1  0.29816000  0.40894000  0.23329000  1.0
  C  C27  1  0.24742000  0.40872000  0.26053000  1.0
  C  C28  1  0.25870000  0.44450000  0.30563000  1.0
  C  C29  1  0.32236000  0.48340000  0.32119000  1.0
  C  C30  1  0.37348000  0.48460000  0.29307000  1.0
  C  C31  1  0.09754000  0.41796000  0.39834000  1.0
  C  C32  1  0.10248000  0.36766000  0.37536000  1.0
  C  C33  1  0.15502000  0.37700000  0.34592000  1.0
  C  C34  1  0.20374000  0.43700000  0.33767000  1.0
  C  C35  1  0.19854000  0.48812000  0.35976500  1.0
  C  C36  1  0.14630000  0.47816000  0.39075000  1.0
  C  C37  1  0.22732000  0.57106000  0.30879000  1.0
  C  C38  1  0.86218000  0.32210000  0.57981000  1.0
  C  C39  1  0.83600000  0.33442000  0.62386000  1.0
  C  C40  1  0.79288000  0.28594000  0.65282000  1.0
  C  C41  1  0.77548000  0.22428000  0.63839000  1.0
  C  C42  1  0.80100000  0.21194000  0.59384000  1.0
  C  C43  1  0.84408000  0.26052000  0.56475000  1.0
  C  C44  1  0.62332000  0.08378000  0.72063000  1.0
  C  C45  1  0.62298000  0.08344000  0.66703000  1.0
  C  C46  1  0.67402000  0.12744000  0.64076000  1.0
  C  C47  1  0.72670000  0.17302000  0.66742000  1.0
  C  C48  1  0.72954000  0.17112000  0.72138000  1.0
  C  C49  1  0.67750000  0.12660000  0.74773000  1.0
  C  C50  1  0.82646000  0.19172000  0.75544000  1.0
  C  C51  1  0.50290000  0.87670000  0.93718000  1.0
  C  C52  1  0.49310000  0.88000000  0.98966000  1.0
  C  C53  1  0.50600000  0.84306000  0.02379000  1.0
  C  C54  1  0.52790000  0.80108000  0.00610000  1.0
  C  C55  1  0.54276000  0.80148000  0.95409000  1.0
  C  C56  1  0.53070000  0.83940000  0.91987000  1.0
  C  C57  1  0.50600000  0.64432000  0.09535000  1.0
  C  C58  1  0.45864000  0.66460000  0.09372000  1.0
  C  C59  1  0.46772000  0.71694000  0.06656000  1.0
  C  C60  1  0.52436000  0.75056000  0.03991000  1.0
  C  C61  1  0.57388000  0.73252000  0.04360000  1.0
  C  C62  1  0.56430000  0.67940000  0.07119000  1.0
  C  C63  1  0.67396000  0.81132000  0.05113000  1.0
  C  C64  1  0.87936000  0.47224000  0.40695000  1.0
  C  C65  1  0.86976000  0.45928000  0.35420000  1.0
  C  C66  1  0.82932000  0.47604000  0.32591000  1.0
  C  C67  1  0.79692000  0.50564000  0.34978000  1.0
  C  C68  1  0.80942000  0.52200000  0.40199000  1.0
  C  C69  1  0.85090000  0.50600000  0.43027000  1.0
  C  C70  1  0.63422000  0.49028000  0.26217000  1.0
  C  C71  1  0.62820000  0.47186000  0.31329000  1.0
  C  C72  1  0.68204000  0.48182000  0.34289000  1.0
  C  C73  1  0.74328000  0.50986000  0.32196000  1.0
  C  C74  1  0.75020000  0.53314000  0.27193000  1.0
  C  C75  1  0.69568000  0.52316000  0.24237000  1.0
  C  C76  1  0.83600000  0.62574000  0.26062000  1.0
  C  C77  1  0.35440000  0.83050000  0.75845000  1.0
  C  C78  1  0.28922000  0.81484000  0.76274000  1.0
  C  C79  1  0.24342000  0.76552000  0.73336000  1.0
  C  C80  1  0.26260000  0.73136000  0.69998000  1.0
  C  C81  1  0.32766000  0.74682000  0.69652000  1.0
  C  C82  1  0.37296000  0.79562000  0.72554000  1.0
  C  C83  1  0.13854000  0.58072000  0.60169000  1.0
  C  C84  1  0.13546000  0.63732000  0.60064000  1.0
  C  C85  1  0.17414000  0.68600000  0.63409000  1.0
  C  C86  1  0.21588000  0.67838000  0.66913000  1.0
  C  C87  1  0.21678000  0.62070000  0.67172000  1.0
  C  C88  1  0.17940000  0.57310000  0.63755000  1.0
  C  C89  1  0.22266000  0.58841000  0.75157000  1.0
  Co  Co90  1  0.50516000  0.48262000  0.14427000  1.0
  Co  Co91  1  0.46378000  0.35284000  0.19871000  1.0
  Co  Co92  1  0.99668000  0.44618000  0.51908000  1.0
  Co  Co93  1  0.91016000  0.32268000  0.45451000  1.0
  Co  Co94  1  0.47846000  0.97448000  0.81197000  1.0
  Co  Co95  1  0.35010000  0.90064000  0.87471000  1.0
  H  H96  1  0.58264000  0.22514000  0.95915000  1.0
  H  H97  1  0.36050000  0.05594000  0.95462000  1.0
  H  H98  1  0.38654000  0.14842000  0.00694000  1.0
  H  H99  1  0.55646000  0.13344000  0.90547000  1.0
  H  H100  1  0.46682000  0.28882000  0.13560000  1.0
  H  H101  1  0.45382000  0.19866000  0.08521000  1.0
  H  H102  1  0.56814000  0.40826000  0.01263000  1.0
  H  H103  1  0.49946000  0.35944000  0.92498000  1.0
  H  H104  1  0.46516000  0.27518000  0.91653000  1.0
  H  H105  1  0.52796000  0.32566000  0.87665000  1.0
  H  H106  1  0.33272000  0.51078000  0.35620000  1.0
  H  H107  1  0.28798000  0.37900000  0.19978000  1.0
  H  H108  1  0.19910000  0.37908000  0.24701000  1.0
  H  H109  1  0.42208000  0.51302000  0.30655000  1.0
  H  H110  1  0.06628000  0.32060000  0.38091000  1.0
  H  H111  1  0.15782000  0.33676000  0.33001000  1.0
  H  H112  1  0.14358000  0.51780000  0.40806000  1.0
  H  H113  1  0.18158000  0.57368000  0.31446000  1.0
  H  H114  1  0.22448000  0.54328000  0.27376000  1.0
  H  H115  1  0.26488000  0.61892000  0.30256000  1.0
  H  H116  1  0.78796000  0.16470000  0.58176000  1.0
  H  H117  1  0.84938000  0.38160000  0.63635000  1.0
  H  H118  1  0.77252000  0.29674000  0.68612000  1.0
  H  H119  1  0.86422000  0.24990000  0.53124000  1.0
  H  H120  1  0.58192000  0.05038000  0.64516000  1.0
  H  H121  1  0.67068000  0.12766000  0.59946000  1.0
  H  H122  1  0.67848000  0.12746000  0.78911000  1.0
  H  H123  1  0.80670000  0.14862000  0.77811000  1.0
  H  H124  1  0.86820000  0.22686000  0.77725000  1.0
  H  H125  1  0.84436000  0.18398000  0.71815000  1.0
  H  H126  1  0.55892000  0.76914000  0.93914000  1.0
  H  H127  1  0.47182000  0.90856000  0.00392000  1.0
  H  H128  1  0.49480000  0.84436000  0.06367000  1.0
  H  H129  1  0.53790000  0.83554000  0.87946000  1.0
  H  H130  1  0.41322000  0.63854000  0.11198000  1.0
  H  H131  1  0.42870000  0.72928000  0.06438000  1.0
  H  H132  1  0.60128000  0.66420000  0.07159000  1.0
  H  H133  1  0.68558000  0.79154000  0.08560000  1.0
  H  H134  1  0.65606000  0.84524000  0.06221000  1.0
  H  H135  1  0.71920000  0.83720000  0.03055000  1.0
  H  H136  1  0.78482000  0.54460000  0.42137000  1.0
  H  H137  1  0.89116000  0.43336000  0.33520000  1.0
  H  H138  1  0.81996000  0.46186000  0.28604000  1.0
  H  H139  1  0.85702000  0.51608000  0.47095000  1.0
  H  H140  1  0.58140000  0.44672000  0.32969000  1.0
  H  H141  1  0.67522000  0.46344000  0.38105000  1.0
  H  H142  1  0.70148000  0.53764000  0.20300000  1.0
  H  H143  1  0.84280000  0.63618000  0.30243000  1.0
  H  H144  1  0.80642000  0.64610000  0.24306000  1.0
  H  H145  1  0.88390000  0.64858000  0.24332000  1.0
  H  H146  1  0.34366000  0.72156000  0.67068000  1.0
  H  H147  1  0.27398000  0.84176000  0.78740000  1.0
  H  H148  1  0.19330000  0.75402000  0.73669000  1.0
  H  H149  1  0.42294000  0.80698000  0.72114000  1.0
  H  H150  1  0.10386000  0.64418000  0.57377000  1.0
  H  H151  1  0.17284000  0.73008000  0.63166000  1.0
  H  H152  1  0.18228000  0.52974000  0.63981000  1.0
  H  H153  1  0.18022000  0.54274000  0.74482000  1.0
  H  H154  1  0.20838000  0.62220000  0.76946000  1.0
  H  H155  1  0.25468000  0.58118000  0.77931000  1.0
  O  O156  1  0.53092000  0.41084000  0.23872000  1.0
  O  O157  1  0.40786000  0.38178000  0.22313000  1.0
  O  O158  1  0.45628000  0.48606000  0.19924000  1.0
  O  O159  1  0.57494000  0.49898000  0.18838000  1.0
  O  O160  1  0.54728000  0.46738000  0.09062000  1.0
  O  O161  1  0.48012000  0.40256000  0.14447000  1.0
  O  O162  1  0.53360000  0.56670000  0.13276000  1.0
  O  O163  1  0.43012000  0.53976000  0.11342000  1.0
  O  O164  1  0.89732000  0.38488000  0.42304000  1.0
  O  O165  1  0.99134000  0.35206000  0.42660000  1.0
  O  O166  1  0.04764000  0.45134000  0.46355000  1.0
  O  O167  1  0.94622000  0.47114000  0.47836000  1.0
  O  O168  1  0.94168000  0.43136000  0.57235000  1.0
  O  O169  1  0.94304000  0.36728000  0.51260000  1.0
  O  O170  1  0.05150000  0.52658000  0.53890000  1.0
  O  O171  1  0.10146000  0.47510000  0.57292000  1.0
  O  O172  1  0.41200000  0.88816000  0.91070000  1.0
  O  O173  1  0.38438000  0.98214000  0.90017000  1.0
  O  O174  1  0.48348000  0.03296000  0.86051000  1.0
  O  O175  1  0.50424000  0.93404000  0.86132000  1.0
  O  O176  1  0.46460000  0.91210000  0.76590000  1.0
  O  O177  1  0.39642000  0.92306000  0.81725000  1.0
  O  O178  1  0.56182000  0.02436000  0.79345000  1.0
  O  O179  1  0.50924000  0.02670000  0.72157000  1.0
  O  O180  1  0.55724000  0.31918000  0.94947000  1.0
  O  O181  1  0.24486000  0.54796000  0.35225000  1.0
  O  O182  1  0.78136000  0.21474000  0.74880000  1.0
  O  O183  1  0.63038000  0.76444000  0.01812000  1.0
  O  O184  1  0.80976000  0.56156000  0.25022000  1.0
  O  O185  1  0.25648000  0.61126000  0.70624000  1.0
