# generated using pymatgen
data_CoH42(C11N)6
_symmetry_space_group_name_H-M   'P 1'
_cell_length_a   16.51640000
_cell_length_b   16.51450000
_cell_length_c   40.24639260
_cell_angle_alpha   95.74979328
_cell_angle_beta   95.56438175
_cell_angle_gamma   119.95600000
_symmetry_Int_Tables_number   1
_chemical_formula_structural   CoH42(C11N)6
_chemical_formula_sum   'Co3 H126 C198 N18'
_cell_volume   9324.66615436
_cell_formula_units_Z   3
loop_
 _symmetry_equiv_pos_site_id
 _symmetry_equiv_pos_as_xyz
  1  'x, y, z'
loop_
 _atom_site_type_symbol
 _atom_site_label
 _atom_site_symmetry_multiplicity
 _atom_site_fract_x
 _atom_site_fract_y
 _atom_site_fract_z
 _atom_site_occupancy
  C  C0  1  0.93703000  0.02095000  0.84325000  1.0
  C  C1  1  0.47151000  0.02246000  0.41039000  1.0
  C  C2  1  0.54138000  0.84972000  0.48250000  1.0
  C  C3  1  0.53836000  0.27706000  0.48068000  1.0
  C  C4  1  0.55334000  0.36348000  0.47226000  1.0
  C  C5  1  0.42946000  0.88194000  0.34462000  1.0
  C  C6  1  0.41588000  0.83736000  0.31144000  1.0
  C  C7  1  0.29421000  0.63647000  0.88571000  1.0
  C  C8  1  0.15819500  0.72541500  0.77883500  1.0
  C  C9  1  0.12586000  0.66364000  0.74718000  1.0
  C  C10  1  0.20652000  0.60592000  0.89604000  1.0
  C  C11  1  0.14988000  0.78172000  0.86228000  1.0
  C  C12  1  0.15733000  0.65225000  0.88933000  1.0
  C  C13  1  0.19590000  0.72846000  0.87156000  1.0
  C  C14  1  0.16683000  0.91211000  0.83687000  1.0
  C  C15  1  0.07884000  0.89610000  0.84420000  1.0
  C  C16  1  0.02584000  0.81854000  0.86022000  1.0
  C  C17  1  0.06153000  0.76221000  0.86973000  1.0
  C  C18  1  0.66827000  0.36512000  0.43841000  1.0
  C  C19  1  0.65012000  0.27852000  0.44734000  1.0
  C  C20  1  0.73103000  0.28973000  0.53189000  1.0
  C  C21  1  0.79817000  0.32627000  0.56225000  1.0
  C  C22  1  0.69223000  0.22391000  0.43433000  1.0
  C  C23  1  0.73804000  0.24011000  0.40606000  1.0
  C  C24  1  0.69504000  0.08170000  0.43538000  1.0
  C  C25  1  0.72922000  0.08804000  0.40436000  1.0
  C  C26  1  0.82728000  0.26710000  0.57481000  1.0
  C  C27  1  0.75419000  0.17107000  0.39071000  1.0
  C  C28  1  0.65944000  0.03761000  0.51471000  1.0
  C  C29  1  0.78707000  0.17367000  0.55895000  1.0
  C  C30  1  0.71678000  0.13857000  0.53012000  1.0
  C  C31  1  0.62196500  0.87572500  0.50636500  1.0
  C  C32  1  0.68002000  0.96881000  0.52288000  1.0
  C  C33  1  0.62064000  0.40784000  0.45126000  1.0
  C  C34  1  0.51033000  0.42699000  0.14103000  1.0
  C  C35  1  0.53955000  0.39663000  0.16883000  1.0
  C  C36  1  0.06133000  0.99959000  0.80541000  1.0
  C  C37  1  0.04130000  0.95786000  0.83470000  1.0
  C  C38  1  0.98089000  0.97167000  0.85397000  1.0
  C  C39  1  0.95817000  0.06175000  0.81399000  1.0
  C  C40  1  0.02100000  0.05214000  0.79550000  1.0
  C  C41  1  0.39527000  0.36889000  0.08611000  1.0
  C  C42  1  0.41214000  0.37094000  0.12132000  1.0
  C  C43  1  0.33475000  0.31727000  0.13725000  1.0
  C  C44  1  0.24287000  0.26081000  0.11841000  1.0
  C  C45  1  0.22755000  0.26187000  0.08359000  1.0
  C  C46  1  0.30349000  0.31607000  0.06763000  1.0
  C  C47  1  0.37939000  0.93979000  0.98413000  1.0
  C  C48  1  0.46454000  0.00567000  0.04169000  1.0
  C  C49  1  0.38630000  0.93456000  0.01858000  1.0
  C  C50  1  0.94929000  0.58513000  0.74495000  1.0
  C  C51  1  0.83761000  0.42415000  0.58147000  1.0
  C  C52  1  0.85262000  0.44150000  0.61738000  1.0
  C  C53  1  0.89944000  0.53473000  0.63579000  1.0
  C  C54  1  0.92944000  0.61080000  0.61798000  1.0
  C  C55  1  0.91178000  0.59412000  0.58254000  1.0
  C  C56  1  0.86624000  0.50164000  0.56436000  1.0
  C  C57  1  0.02734000  0.62000000  0.72792000  1.0
  C  C58  1  0.01017000  0.60553000  0.69201000  1.0
  C  C59  1  0.91709000  0.55283000  0.67353000  1.0
  C  C60  1  0.84074000  0.51698000  0.69126000  1.0
  C  C61  1  0.85682000  0.53422000  0.72668000  1.0
  C  C62  1  0.65418000  0.91062000  0.38780000  1.0
  C  C63  1  0.72284000  0.00302000  0.38386000  1.0
  C  C64  1  0.77693000  0.01203000  0.35777000  1.0
  C  C65  1  0.75895000  0.93149000  0.33525000  1.0
  C  C66  1  0.68914000  0.84114000  0.33972000  1.0
  C  C67  1  0.63806000  0.83096000  0.36608000  1.0
  C  C68  1  0.35169000  0.83695000  0.28597000  1.0
  C  C69  1  0.33167000  0.71439000  0.86875000  1.0
  C  C70  1  0.18904000  0.64154000  0.73380000  1.0
  C  C71  1  0.39338000  0.94618000  0.90932000  1.0
  C  C72  1  0.69951000  0.86337000  0.19583000  1.0
  C  C73  1  0.66018000  0.82328000  0.16182000  1.0
  C  C74  1  0.57769000  0.51051000  0.13119000  1.0
  C  C75  1  0.63344000  0.44856000  0.18576000  1.0
  C  C76  1  0.45153000  0.01633000  0.97221000  1.0
  C  C77  1  0.30369000  0.49385000  0.86777000  1.0
  C  C78  1  0.34082000  0.58082000  0.88946000  1.0
  C  C79  1  0.34655000  0.43988000  0.87059000  1.0
  C  C80  1  0.17934000  0.96932000  0.68068000  1.0
  C  C81  1  0.21269000  0.97185000  0.71417000  1.0
  C  C82  1  0.76525000  0.89332000  0.27383000  1.0
  C  C83  1  0.81289000  0.94065000  0.30705000  1.0
  C  C84  1  0.52320000  0.92124000  0.47514000  1.0
  C  C85  1  0.48158000  0.78248000  0.78998000  1.0
  C  C86  1  0.41028000  0.79798000  0.79917000  1.0
  C  C87  1  0.31178000  0.74532000  0.78106000  1.0
  C  C88  1  0.28155000  0.68209000  0.75045000  1.0
  C  C89  1  0.44119000  0.02580000  0.93577000  1.0
  C  C90  1  0.47651000  0.11633000  0.92715000  1.0
  C  C91  1  0.46602000  0.12716000  0.89360000  1.0
  C  C92  1  0.41820000  0.04666000  0.86826000  1.0
  C  C93  1  0.40025000  0.05005000  0.83213000  1.0
  C  C94  1  0.42944000  0.13400000  0.81892000  1.0
  C  C95  1  0.34397000  0.03963000  0.76387000  1.0
  C  C96  1  0.31923000  0.95751000  0.77775000  1.0
  C  C97  1  0.40090000  0.12828000  0.78474000  1.0
  C  C98  1  0.51874000  0.91770000  0.84542000  1.0
  C  C99  1  0.59303000  0.90519000  0.83681000  1.0
  C  C100  1  0.57197000  0.83509000  0.80905000  1.0
  C  C101  1  0.51181000  0.13729000  0.54379000  1.0
  C  C102  1  0.43803000  0.12443000  0.56131000  1.0
  C  C103  1  0.34478000  0.07458000  0.54356000  1.0
  C  C104  1  0.32620000  0.03834000  0.50934000  1.0
  C  C105  1  0.40193000  0.05391000  0.49261000  1.0
  C  C106  1  0.39110000  0.02341000  0.45614000  1.0
  C  C107  1  0.30316000  0.96732000  0.43474000  1.0
  C  C108  1  0.38447000  0.96442000  0.38830000  1.0
  C  C109  1  0.30034000  0.93805000  0.40093000  1.0
  C  C110  1  0.00531000  0.79375000  0.08667000  1.0
  C  C111  1  0.92032000  0.72994000  0.09660000  1.0
  C  C112  1  0.94750000  0.71727000  0.17996000  1.0
  C  C113  1  0.99187000  0.72193000  0.21223000  1.0
  C  C114  1  0.87238000  0.62572000  0.08778000  1.0
  C  C115  1  0.90071000  0.57673000  0.06579000  1.0
  C  C116  1  0.74815000  0.47973000  0.09865000  1.0
  C  C117  1  0.77642000  0.42828000  0.07794000  1.0
  C  C118  1  0.93971000  0.65123000  0.23105000  1.0
  C  C119  1  0.85255000  0.47773000  0.06109000  1.0
  C  C120  1  0.69862000  0.52976000  0.17410000  1.0
  C  C121  1  0.84460000  0.58240000  0.21854000  1.0
  C  C122  1  0.80116000  0.58710000  0.18764000  1.0
  C  C123  1  0.79087000  0.78647000  0.19465000  1.0
  C  C124  1  0.76721000  0.84705000  0.21247000  1.0
  C  C125  1  0.68834000  0.76566000  0.14464000  1.0
  C  C126  1  0.65862000  0.72574000  0.10810000  1.0
  C  C127  1  0.60541000  0.74729000  0.08523000  1.0
  C  C128  1  0.63170000  0.66223000  0.03880000  1.0
  C  C129  1  0.67942000  0.63738000  0.06284000  1.0
  C  C130  1  0.59255000  0.71572000  0.05059000  1.0
  C  C131  1  0.91705500  0.85737500  0.12849500  1.0
  C  C132  1  0.00419000  0.92395000  0.12049000  1.0
  C  C133  1  0.04796000  0.89030000  0.09926000  1.0
  C  C134  1  0.69087000  0.96069000  0.85701000  1.0
  C  C135  1  0.76965000  0.98041000  0.84113000  1.0
  C  C136  1  0.86034000  0.01856000  0.86020000  1.0
  C  C137  1  0.87375000  0.04348000  0.89548000  1.0
  C  C138  1  0.79725000  0.02951000  0.91135000  1.0
  C  C139  1  0.70616000  0.98732000  0.89240000  1.0
  C  C140  1  0.47437000  0.39617000  0.51809000  1.0
  C  C141  1  0.48106000  0.74975000  0.46452000  1.0
  C  C142  1  0.47075000  0.67509000  0.48119000  1.0
  C  C143  1  0.42796000  0.58216000  0.46348000  1.0
  C  C144  1  0.38940000  0.56236000  0.42902000  1.0
  C  C145  1  0.39407000  0.63493000  0.41263000  1.0
  C  C146  1  0.44030000  0.72822000  0.43008000  1.0
  C  C147  1  0.50049000  0.40737000  0.48579000  1.0
  C  C148  1  0.47806000  0.46318000  0.46698000  1.0
  C  C149  1  0.43412000  0.50982000  0.48062000  1.0
  C  C150  1  0.40791000  0.49657000  0.51265000  1.0
  C  C151  1  0.42725000  0.43933000  0.53109000  1.0
  C  C152  1  0.05121000  0.02629000  0.13571000  1.0
  C  C153  1  0.11358000  0.09648000  0.11880000  1.0
  C  C154  1  0.16607000  0.19205000  0.13437000  1.0
  C  C155  1  0.15202000  0.21866000  0.16652000  1.0
  C  C156  1  0.08756000  0.15015000  0.18306000  1.0
  C  C157  1  0.03837000  0.05466000  0.16806000  1.0
  C  C158  1  0.73660000  0.32589000  0.07821000  1.0
  C  C159  1  0.65934000  0.25588000  0.05384000  1.0
  C  C160  1  0.62157000  0.15861000  0.05541000  1.0
  C  C161  1  0.66326000  0.13324000  0.08138000  1.0
  C  C162  1  0.74005000  0.20275000  0.10537000  1.0
  C  C163  1  0.77635000  0.29851000  0.10391000  1.0
  C  C164  1  0.53140000  0.08714000  0.99578000  1.0
  C  C165  1  0.53800000  0.08308000  0.03060000  1.0
  C  C166  1  0.08559000  0.80765000  0.22757000  1.0
  C  C167  1  0.15205000  0.80271000  0.25077000  1.0
  C  C168  1  0.23616000  0.88606000  0.26692000  1.0
  C  C169  1  0.25468000  0.97416000  0.25938000  1.0
  C  C170  1  0.19029000  0.97957000  0.23611000  1.0
  C  C171  1  0.10631000  0.89745000  0.22053000  1.0
  C  C172  1  0.37928000  0.92709000  0.35262000  1.0
  C  C173  1  0.31678000  0.92853000  0.32674000  1.0
  C  C174  1  0.30220000  0.88310000  0.29350000  1.0
  C  C175  1  0.63016000  0.63934000  0.00190000  1.0
  C  C176  1  0.54997000  0.61337000  0.97763000  1.0
  C  C177  1  0.54990000  0.59157000  0.94290000  1.0
  C  C178  1  0.63105000  0.59735000  0.93251000  1.0
  C  C179  1  0.71113000  0.62471000  0.95629000  1.0
  C  C180  1  0.71093000  0.64551000  0.99069000  1.0
  C  C181  1  0.42096000  0.61296000  0.91442000  1.0
  C  C182  1  0.46425000  0.55847000  0.91735000  1.0
  C  C183  1  0.42657000  0.47201000  0.89513000  1.0
  C  C184  1  0.53156000  0.25610000  0.61110000  1.0
  C  C185  1  0.30884000  0.03340000  0.72808000  1.0
  C  C186  1  0.37133000  0.09109000  0.70795000  1.0
  C  C187  1  0.33855000  0.08861000  0.67421000  1.0
  C  C188  1  0.24156000  0.02760000  0.66082000  1.0
  C  C189  1  0.45683000  0.16359000  0.59771000  1.0
  C  C190  1  0.39586000  0.10922000  0.61888000  1.0
  C  C191  1  0.40591000  0.14719000  0.65275000  1.0
  C  C192  1  0.48058000  0.24030000  0.66574000  1.0
  C  C193  1  0.54326000  0.29398000  0.64502000  1.0
  C  C194  1  0.81656000  0.89634000  0.24756000  1.0
  C  C195  1  0.91238000  0.99290000  0.31352000  1.0
  C  C196  1  0.96352000  0.99578000  0.28756000  1.0
  C  C197  1  0.91609000  0.94728000  0.25488000  1.0
  Co  Co198  1  0.58345000  0.12463000  0.47973000  1.0
  Co  Co199  1  0.31506000  0.86054000  0.83614000  1.0
  Co  Co200  1  0.77367000  0.66139000  0.13249000  1.0
  H  H201  1  0.95612000  0.80032000  0.86526000  1.0
  H  H202  1  0.96457000  0.94099000  0.87671000  1.0
  H  H203  1  0.49756000  0.47336000  0.44216000  1.0
  H  H204  1  0.15714000  0.21902000  0.06862000  1.0
  H  H205  1  0.76861000  0.47653000  0.67765000  1.0
  H  H206  1  0.79726000  0.50658000  0.74008000  1.0
  H  H207  1  0.34145000  0.80176000  0.26041000  1.0
  H  H208  1  0.47620000  0.87808000  0.36424000  1.0
  H  H209  1  0.11103000  0.74419000  0.78939000  1.0
  H  H210  1  0.20894000  0.97150000  0.82492000  1.0
  H  H211  1  0.01948000  0.70422000  0.88246000  1.0
  H  H212  1  0.08977000  0.62717000  0.89759000  1.0
  H  H213  1  0.17563000  0.54537000  0.90889000  1.0
  H  H214  1  0.63745000  0.47603000  0.44491000  1.0
  H  H215  1  0.71905500  0.40039500  0.42213500  1.0
  H  H216  1  0.75351000  0.30057000  0.39395000  1.0
  H  H217  1  0.78000000  0.18052000  0.36690000  1.0
  H  H218  1  0.67956000  0.02130000  0.44718000  1.0
  H  H219  1  0.64189000  0.82467000  0.51193000  1.0
  H  H220  1  0.74140000  0.98602000  0.54096000  1.0
  H  H221  1  0.80858000  0.12933000  0.57026000  1.0
  H  H222  1  0.88050000  0.29267000  0.59736000  1.0
  H  H223  1  0.70696000  0.33390000  0.52214000  1.0
  H  H224  1  0.49097000  0.33149000  0.17701000  1.0
  H  H225  1  0.92475000  0.09961000  0.80515000  1.0
  H  H226  1  0.03632000  0.08310000  0.77278000  1.0
  H  H227  1  0.10576000  0.98956000  0.78944000  1.0
  H  H228  1  0.34602000  0.31675000  0.16416000  1.0
  H  H229  1  0.29155000  0.31523000  0.04065000  1.0
  H  H230  1  0.45286000  0.40642000  0.07248000  1.0
  H  H231  1  0.46695000  0.00067000  0.06835000  1.0
  H  H232  1  0.32991000  0.87573000  0.02749000  1.0
  H  H233  1  0.31624000  0.88513000  0.96705000  1.0
  H  H234  1  0.06914000  0.63324000  0.67828000  1.0
  H  H235  1  0.95952000  0.59418000  0.77234000  1.0
  H  H236  1  0.82948000  0.38268000  0.63112000  1.0
  H  H237  1  0.96550000  0.68308000  0.63152000  1.0
  H  H238  1  0.93467000  0.65337000  0.56907000  1.0
  H  H239  1  0.85619000  0.49107000  0.53695000  1.0
  H  H240  1  0.67475000  0.77821000  0.32297000  1.0
  H  H241  1  0.58404000  0.76094000  0.36928000  1.0
  H  H242  1  0.60884000  0.89864000  0.40660000  1.0
  H  H243  1  0.68841000  0.85325000  0.26851000  1.0
  H  H244  1  0.53584000  0.04372000  0.40040000  1.0
  H  H245  1  0.45418000  0.80186000  0.30558000  1.0
  H  H246  1  0.24178000  0.46808000  0.84850000  1.0
  H  H247  1  0.16703000  0.59235000  0.71029000  1.0
  H  H248  1  0.36614000  0.87596000  0.91528000  1.0
  H  H249  1  0.55661000  0.53573000  0.11039000  1.0
  H  H250  1  0.65471000  0.42315000  0.20665000  1.0
  H  H251  1  0.67952000  0.90968000  0.20882000  1.0
  H  H252  1  0.60980000  0.83872000  0.14934000  1.0
  H  H253  1  0.57761000  0.79135000  0.09349000  1.0
  H  H254  1  0.31776000  0.37300000  0.85370000  1.0
  H  H255  1  0.48669000  0.60711000  0.98571000  1.0
  H  H256  1  0.10502000  0.92246000  0.67014000  1.0
  H  H257  1  0.16312000  0.92716000  0.72938000  1.0
  H  H258  1  0.83154000  0.08134000  0.35426000  1.0
  H  H259  1  0.53308000  0.97026000  0.86684000  1.0
  H  H260  1  0.62480000  0.81904000  0.80222000  1.0
  H  H261  1  0.46858000  0.72932000  0.76888000  1.0
  H  H262  1  0.32832000  0.66478000  0.73876000  1.0
  H  H263  1  0.39901000  0.73717000  0.86071000  1.0
  H  H264  1  0.51062000  0.17946000  0.94638000  1.0
  H  H265  1  0.49395000  0.19806000  0.88812000  1.0
  H  H266  1  0.47182000  0.20334000  0.83448000  1.0
  H  H267  1  0.42111000  0.19315000  0.77481000  1.0
  H  H268  1  0.27705000  0.88969000  0.76143000  1.0
  H  H269  1  0.48679000  0.24180000  0.49646000  1.0
  H  H270  1  0.46230000  0.90286000  0.45676000  1.0
  H  H271  1  0.58305000  0.17394000  0.55762000  1.0
  H  H272  1  0.28606000  0.06474000  0.55604000  1.0
  H  H273  1  0.25362000  0.00103000  0.49644000  1.0
  H  H274  1  0.23677000  0.94393000  0.44371000  1.0
  H  H275  1  0.23199000  0.89245000  0.38483000  1.0
  H  H276  1  0.88100000  0.88138000  0.14386000  1.0
  H  H277  1  0.11655000  0.93775000  0.09303000  1.0
  H  H278  1  0.04087000  0.77009000  0.07063000  1.0
  H  H279  1  0.96009000  0.61351000  0.05291000  1.0
  H  H280  1  0.87669000  0.43993000  0.04527000  1.0
  H  H281  1  0.69023000  0.44112000  0.11179000  1.0
  H  H282  1  0.80479000  0.53093000  0.23397000  1.0
  H  H283  1  0.97040000  0.65206000  0.25618000  1.0
  H  H284  1  0.98753000  0.76915000  0.16493000  1.0
  H  H285  1  0.84174000  0.77308000  0.20770000  1.0
  H  H286  1  0.55589000  0.73707000  0.03301000  1.0
  H  H287  1  0.70746000  0.59416000  0.05416000  1.0
  H  H288  1  0.76008000  0.96180000  0.81388000  1.0
  H  H289  1  0.94303000  0.07261000  0.91073000  1.0
  H  H290  1  0.80802000  0.04852000  0.93860000  1.0
  H  H291  1  0.64763000  0.97251000  0.90569000  1.0
  H  H292  1  0.37438000  0.53226000  0.52370000  1.0
  H  H293  1  0.40798000  0.43046000  0.55598000  1.0
  H  H294  1  0.49218000  0.35606000  0.53386000  1.0
  H  H295  1  0.50021000  0.68971000  0.50781000  1.0
  H  H296  1  0.35654000  0.49116000  0.41480000  1.0
  H  H297  1  0.36436000  0.61938000  0.38602000  1.0
  H  H298  1  0.44686000  0.78346000  0.41622000  1.0
  H  H299  1  0.12448000  0.07678000  0.09390000  1.0
  H  H300  1  0.19187000  0.29209000  0.17899000  1.0
  H  H301  1  0.07757000  0.17075000  0.20801000  1.0
  H  H302  1  0.99245000  0.00337000  0.18237000  1.0
  H  H303  1  0.58933000  0.14511000  0.98709000  1.0
  H  H304  1  0.62777000  0.27713000  0.03427000  1.0
  H  H305  1  0.63690000  0.05940000  0.08302000  1.0
  H  H306  1  0.77141500  0.18226500  0.12522500  1.0
  H  H307  1  0.83561000  0.35149000  0.12290000  1.0
  H  H308  1  0.27786000  0.96354000  0.33258000  1.0
  H  H309  1  0.13775000  0.73491000  0.25689000  1.0
  H  H310  1  0.31880000  0.03892000  0.27178000  1.0
  H  H311  1  0.20455500  0.04783500  0.23059500  1.0
  H  H312  1  0.05645000  0.90513000  0.20367000  1.0
  H  H313  1  0.44980000  0.68014000  0.93122000  1.0
  H  H314  1  0.45871000  0.42893000  0.89695000  1.0
  H  H315  1  0.63256000  0.58106000  0.90592000  1.0
  H  H316  1  0.77368000  0.62980000  0.94802000  1.0
  H  H317  1  0.77474000  0.66778000  0.00848000  1.0
  H  H318  1  0.34053000  0.03655000  0.60889000  1.0
  H  H319  1  0.48985000  0.27209000  0.69173000  1.0
  H  H320  1  0.60002000  0.36574000  0.65512000  1.0
  H  H321  1  0.57920000  0.29988000  0.59520000  1.0
  H  H322  1  0.44606000  0.13626000  0.71844000  1.0
  H  H323  1  0.21360000  0.02510000  0.63502000  1.0
  H  H324  1  0.95055000  0.02945000  0.33885000  1.0
  H  H325  1  0.04023000  0.03525000  0.29283000  1.0
  H  H326  1  0.95725000  0.95059000  0.23521000  1.0
  N  N327  1  0.58388000  0.01334000  0.49060000  1.0
  N  N328  1  0.19886000  0.85354000  0.84520000  1.0
  N  N329  1  0.58847000  0.23829000  0.46893000  1.0
  N  N330  1  0.67117000  0.14541000  0.44817000  1.0
  N  N331  1  0.69120000  0.19662000  0.51678000  1.0
  N  N332  1  0.28153000  0.75799000  0.86179000  1.0
  N  N333  1  0.25041000  0.76526000  0.79487000  1.0
  N  N334  1  0.42926000  0.86292000  0.82686000  1.0
  N  N335  1  0.38240000  0.95838000  0.87636000  1.0
  N  N336  1  0.34747000  0.96435000  0.81143000  1.0
  N  N337  1  0.49254000  0.10378000  0.50980000  1.0
  N  N338  1  0.47315000  0.05026000  0.44384000  1.0
  N  N339  1  0.88013000  0.76290000  0.11789000  1.0
  N  N340  1  0.79604000  0.57674000  0.10298000  1.0
  N  N341  1  0.75093000  0.74687000  0.16143000  1.0
  N  N342  1  0.69289000  0.67039000  0.09659000  1.0
  N  N343  1  0.66955000  0.55757000  0.14703000  1.0
  N  N344  1  0.85295000  0.65447000  0.16941000  1.0
