# generated using pymatgen
data_Cd3H48C54(ClO7)2
_symmetry_space_group_name_H-M   'P 1'
_cell_length_a   23.20864416
_cell_length_b   23.21200000
_cell_length_c   47.58360000
_cell_angle_alpha   89.99700000
_cell_angle_beta   90.00000023
_cell_angle_gamma   120.00034850
_symmetry_Int_Tables_number   1
_chemical_formula_structural   Cd3H48C54(ClO7)2
_chemical_formula_sum   'Cd18 H288 C324 Cl12 O84'
_cell_volume   22199.78322031
_cell_formula_units_Z   6
loop_
 _symmetry_equiv_pos_site_id
 _symmetry_equiv_pos_as_xyz
  1  'x, y, z'
loop_
 _atom_site_type_symbol
 _atom_site_label
 _atom_site_symmetry_multiplicity
 _atom_site_fract_x
 _atom_site_fract_y
 _atom_site_fract_z
 _atom_site_occupancy
  C  C0  1  0.65638000  0.72456000  0.88083000  1.0
  C  C1  1  0.43684000  0.67610000  0.91907000  1.0
  C  C2  1  0.50937000  0.81851000  0.01257500  1.0
  C  C3  1  0.37090000  0.89960000  0.03973000  1.0
  C  C4  1  0.53039000  0.95355000  0.96062000  1.0
  C  C5  1  0.54272000  0.84220000  0.87818000  1.0
  C  C6  1  0.51474000  0.77786000  0.56169000  1.0
  C  C7  1  0.44423000  0.94213000  0.58004000  1.0
  C  C8  1  0.58008000  0.03094000  0.67641000  1.0
  C  C9  1  0.63918000  0.24223000  0.70441000  1.0
  C  C10  1  0.70739000  0.16040000  0.62315000  1.0
  C  C11  1  0.60638000  0.01601000  0.54099000  1.0
  C  C12  1  0.54554000  0.00278000  0.21910500  1.0
  C  C13  1  0.72130000  0.23866000  0.23470500  1.0
  C  C14  1  0.78526000  0.17342000  0.33750000  1.0
  C  C15  1  0.00162000  0.30961000  0.36862000  1.0
  C  C16  1  0.91956000  0.17262000  0.28377000  1.0
  C  C17  1  0.78044000  0.14234000  0.20189000  1.0
  C  C18  1  0.78712000  0.18690000  0.88364000  1.0
  C  C19  1  0.02508000  0.24904000  0.90432000  1.0
  C  C20  1  0.94176000  0.09966000  0.00300000  1.0
  C  C21  1  0.08546000  0.03406000  0.03647000  1.0
  C  C22  1  0.94872000  0.97780000  0.95093000  1.0
  C  C23  1  0.92848000  0.09044000  0.86878000  1.0
  C  C24  1  0.99844000  0.13706000  0.55146000  1.0
  C  C25  1  0.03412000  0.94214000  0.56831000  1.0
  C  C26  1  0.89146000  0.88748000  0.67022000  1.0
  C  C27  1  0.79634000  0.66648000  0.69681000  1.0
  C  C28  1  0.76114000  0.77819000  0.61649000  1.0
  C  C29  1  0.88410000  0.89697000  0.53617500  1.0
  C  C30  1  0.91167000  0.88677000  0.22089000  1.0
  C  C31  1  0.72612000  0.65388000  0.24227000  1.0
  C  C32  1  0.67822000  0.72936000  0.34162000  1.0
  C  C33  1  0.46549000  0.60747000  0.37927500  1.0
  C  C34  1  0.55077000  0.74589000  0.29474000  1.0
  C  C35  1  0.67059000  0.76427000  0.20900000  1.0
  C  C36  1  0.82724000  0.90890000  0.96454000  1.0
  C  C37  1  0.76578000  0.90460000  0.95997000  1.0
  C  C38  1  0.75612000  0.93664000  0.93690000  1.0
  C  C39  1  0.79662000  0.94616000  0.91295000  1.0
  C  C40  1  0.85796000  0.94946000  0.91727000  1.0
  C  C41  1  0.87720000  0.94172000  0.94415000  1.0
  C  C42  1  0.60050000  0.97902000  0.95362000  1.0
  C  C43  1  0.64540000  0.98802000  0.97486000  1.0
  C  C44  1  0.70392000  0.98744000  0.96866000  1.0
  C  C45  1  0.71206000  0.96684000  0.94128000  1.0
  C  C46  1  0.67304000  0.97112000  0.91953000  1.0
  C  C47  1  0.61990000  0.98148000  0.92554000  1.0
  C  C48  1  0.83990000  0.88658000  0.99239000  1.0
  C  C49  1  0.78026000  0.95753000  0.88367000  1.0
  C  C50  1  0.75402000  0.00696000  0.99213000  1.0
  C  C51  1  0.58590000  0.99724000  0.90226000  1.0
  C  C52  1  0.71180000  0.84816000  0.63242000  1.0
  C  C53  1  0.71460000  0.90900000  0.62837000  1.0
  C  C54  1  0.74344000  0.94802000  0.60417000  1.0
  C  C55  1  0.75028000  0.91495000  0.58035000  1.0
  C  C56  1  0.74660000  0.85327000  0.58441000  1.0
  C  C57  1  0.73658000  0.82474000  0.61108000  1.0
  C  C58  1  0.74760000  0.12991000  0.61620000  1.0
  C  C59  1  0.77104000  0.10621000  0.63764000  1.0
  C  C60  1  0.78480000  0.05514000  0.63229000  1.0
  C  C61  1  0.76540000  0.02124000  0.60596000  1.0
  C  C62  1  0.75591000  0.05548000  0.58353000  1.0
  C  C63  1  0.75120000  0.11228000  0.58840000  1.0
  C  C64  1  0.68838000  0.81355000  0.66032000  1.0
  C  C65  1  0.76630000  0.94440000  0.55134000  1.0
  C  C66  1  0.81520000  0.03590000  0.65584000  1.0
  C  C67  1  0.75226000  0.15456000  0.56415000  1.0
  C  C68  1  0.60557000  0.83519000  0.25896000  1.0
  C  C69  1  0.66631000  0.89122000  0.25188000  1.0
  C  C70  1  0.71146000  0.93117000  0.27294000  1.0
  C  C71  1  0.68675000  0.92145000  0.30109000  1.0
  C  C72  1  0.62995000  0.86159000  0.30807000  1.0
  C  C73  1  0.59278000  0.81596000  0.28723000  1.0
  C  C74  1  0.89188000  0.10278000  0.27511000  1.0
  C  C75  1  0.86412000  0.08426000  0.24830000  1.0
  C  C76  1  0.81014000  0.02046000  0.24356000  1.0
  C  C77  1  0.78434000  0.97739000  0.26700000  1.0
  C  C78  1  0.82988000  0.98796000  0.28855000  1.0
  C  C79  1  0.88287000  0.05181000  0.29375000  1.0
  C  C80  1  0.55385000  0.79844000  0.23666000  1.0
  C  C81  1  0.72038000  0.97110000  0.32453000  1.0
  C  C82  1  0.78207000  0.00229000  0.21443000  1.0
  C  C83  1  0.92164000  0.06452000  0.32058000  1.0
  C  C84  1  0.37923000  0.96495000  0.08352000  1.0
  C  C85  1  0.38652000  0.96678000  0.11273500  1.0
  C  C86  1  0.36606000  0.90836000  0.12813000  1.0
  C  C87  1  0.32936000  0.84644000  0.11474000  1.0
  C  C88  1  0.32488000  0.84444000  0.08536000  1.0
  C  C89  1  0.35450000  0.90340000  0.06946500  1.0
  C  C90  1  0.48984000  0.96014000  0.20025000  1.0
  C  C91  1  0.43295000  0.96681000  0.20105000  1.0
  C  C92  1  0.38684000  0.94385000  0.17897000  1.0
  C  C93  1  0.39856000  0.91442000  0.15550000  1.0
  C  C94  1  0.45185000  0.90225000  0.15581000  1.0
  C  C95  1  0.49781000  0.92458000  0.17787000  1.0
  C  C96  1  0.40496000  0.02974000  0.06801000  1.0
  C  C97  1  0.30028000  0.78280000  0.13131000  1.0
  C  C98  1  0.33000000  0.95750000  0.17949000  1.0
  C  C99  1  0.55906000  0.91826000  0.17481000  1.0
  C  C100  1  0.59687000  0.23343000  0.75441000  1.0
  C  C101  1  0.61082000  0.22904000  0.78277000  1.0
  C  C102  1  0.67606000  0.25148000  0.79172000  1.0
  C  C103  1  0.72923000  0.28663000  0.77293000  1.0
  C  C104  1  0.71538000  0.29032000  0.74463000  1.0
  C  C105  1  0.64968000  0.25924000  0.73470000  1.0
  C  C106  1  0.74186000  0.19662000  0.86512000  1.0
  C  C107  1  0.71022000  0.15004000  0.84367000  1.0
  C  C108  1  0.68369000  0.16501000  0.82030000  1.0
  C  C109  1  0.68766000  0.22762000  0.81872000  1.0
  C  C110  1  0.71258000  0.27126000  0.84157000  1.0
  C  C111  1  0.73954000  0.25628000  0.86494000  1.0
  C  C112  1  0.52536000  0.20418000  0.74566000  1.0
  C  C113  1  0.80028000  0.31258000  0.78186000  1.0
  C  C114  1  0.66156000  0.11784000  0.79577000  1.0
  C  C115  1  0.77042000  0.30694000  0.88802000  1.0
  C  C116  1  0.00984000  0.35069000  0.41902000  1.0
  C  C117  1  0.01654000  0.33946000  0.44754000  1.0
  C  C118  1  0.03704000  0.29454000  0.45572000  1.0
  C  C119  1  0.05691000  0.26453000  0.43502000  1.0
  C  C120  1  0.05098000  0.27629000  0.40666000  1.0
  C  C121  1  0.02363000  0.31549000  0.39829000  1.0
  C  C122  1  0.01034000  0.19364000  0.53333000  1.0
  C  C123  1  0.95520000  0.18970000  0.51962000  1.0
  C  C124  1  0.96288000  0.22670000  0.49537500  1.0
  C  C125  1  0.02734000  0.27062000  0.48517500  1.0
  C  C126  1  0.08256000  0.28188000  0.50123000  1.0
  C  C127  1  0.07486000  0.24413000  0.52544000  1.0
  C  C128  1  0.98334000  0.39612000  0.41163000  1.0
  C  C129  1  0.07949000  0.21585000  0.44264000  1.0
  C  C130  1  0.90186000  0.21447000  0.47955500  1.0
  C  C131  1  0.13615000  0.25486000  0.54073000  1.0
  C  C132  1  0.12926000  0.07170000  0.08618000  1.0
  C  C133  1  0.11762000  0.05973000  0.11517000  1.0
  C  C134  1  0.06616000  0.99885000  0.12514000  1.0
  C  C135  1  0.02734000  0.94771000  0.10587000  1.0
  C  C136  1  0.03968000  0.95931000  0.07713000  1.0
  C  C137  1  0.08783000  0.02161000  0.06687000  1.0
  C  C138  1  0.96964000  0.93081000  0.20311000  1.0
  C  C139  1  0.97156000  0.98660000  0.19073000  1.0
  C  C140  1  0.01091000  0.01681000  0.16695000  1.0
  C  C141  1  0.04824000  0.98990000  0.15534000  1.0
  C  C142  1  0.05482000  0.94182000  0.17040000  1.0
  C  C143  1  0.01688000  0.91268000  0.19458000  1.0
  C  C144  1  0.18334000  0.13893000  0.07657000  1.0
  C  C145  1  0.97052000  0.88154000  0.11538500  1.0
  C  C146  1  0.01033000  0.07534000  0.15364000  1.0
  C  C147  1  0.02334000  0.85832000  0.20884000  1.0
  C  C148  1  0.82952000  0.67604000  0.74815000  1.0
  C  C149  1  0.80804000  0.67606000  0.77566000  1.0
  C  C150  1  0.74032000  0.64461000  0.78212500  1.0
  C  C151  1  0.69316000  0.60447000  0.76186000  1.0
  C  C152  1  0.71410000  0.60644000  0.73415000  1.0
  C  C153  1  0.78130000  0.64602000  0.72661000  1.0
  C  C154  1  0.68386000  0.70632000  0.85692000  1.0
  C  C155  1  0.68694000  0.73688000  0.83121000  1.0
  C  C156  1  0.70413000  0.71677000  0.80652000  1.0
  C  C157  1  0.72010000  0.66556000  0.80774000  1.0
  C  C158  1  0.71866000  0.63590000  0.83355000  1.0
  C  C159  1  0.70010000  0.65544000  0.85827000  1.0
  C  C160  1  0.90302000  0.71514000  0.74221000  1.0
  C  C161  1  0.62002000  0.56658000  0.76847000  1.0
  C  C162  1  0.69888000  0.74680000  0.77919000  1.0
  C  C163  1  0.69598000  0.62048000  0.88542000  1.0
  C  C164  1  0.41572000  0.62992000  0.42241000  1.0
  C  C165  1  0.41840000  0.63705000  0.45163000  1.0
  C  C166  1  0.44740000  0.60924000  0.46870000  1.0
  C  C167  1  0.47079000  0.56971000  0.45612000  1.0
  C  C168  1  0.47216000  0.56618000  0.42670000  1.0
  C  C169  1  0.44792000  0.59866000  0.40957000  1.0
  C  C170  1  0.49710000  0.71720000  0.54507000  1.0
  C  C171  1  0.42975000  0.67435000  0.53857000  1.0
  C  C172  1  0.41095000  0.63001000  0.51595000  1.0
  C  C173  1  0.46079000  0.63123000  0.49856000  1.0
  C  C174  1  0.52700000  0.66622000  0.50775000  1.0
  C  C175  1  0.54544000  0.70716000  0.53156000  1.0
  C  C176  1  0.38279000  0.66071000  0.40576000  1.0
  C  C177  1  0.49874000  0.53482000  0.47321000  1.0
  C  C178  1  0.33812000  0.58702000  0.50937000  1.0
  C  C179  1  0.61708000  0.74322000  0.54054000  1.0
  C  C180  1  0.32858000  0.57914000  0.93391000  1.0
  C  C181  1  0.27052000  0.52136000  0.92647000  1.0
  C  C182  1  0.26068000  0.49718000  0.89898000  1.0
  C  C183  1  0.30890000  0.53083000  0.87818000  1.0
  C  C184  1  0.36710000  0.58884000  0.88554000  1.0
  C  C185  1  0.37672000  0.61364000  0.91302000  1.0
  C  C186  1  0.08528000  0.31100000  0.89736000  1.0
  C  C187  1  0.08086000  0.36888000  0.89555000  1.0
  C  C188  1  0.13794000  0.43092000  0.89318500  1.0
  C  C189  1  0.20016000  0.43446000  0.89331000  1.0
  C  C190  1  0.20450000  0.37662000  0.89264000  1.0
  C  C191  1  0.14726000  0.31432000  0.89402000  1.0
  C  C192  1  0.33754000  0.60282000  0.96392000  1.0
  C  C193  1  0.29922000  0.50516000  0.84852000  1.0
  C  C194  1  0.13192000  0.49256000  0.89347000  1.0
  C  C195  1  0.15420000  0.25322000  0.89355000  1.0
  C  C196  1  0.33587000  0.93171000  0.59321000  1.0
  C  C197  1  0.27632000  0.92640000  0.58458000  1.0
  C  C198  1  0.25883000  0.91863000  0.55617000  1.0
  C  C199  1  0.29918000  0.91272000  0.53582500  1.0
  C  C200  1  0.35966000  0.91935000  0.54433000  1.0
  C  C201  1  0.37885000  0.93067000  0.57264000  1.0
  C  C202  1  0.08826000  0.93334000  0.55814000  1.0
  C  C203  1  0.14926000  0.99055000  0.55268000  1.0
  C  C204  1  0.20584000  0.98612000  0.54768000  1.0
  C  C205  1  0.20058000  0.92319000  0.54884000  1.0
  C  C206  1  0.13858000  0.86552000  0.55084000  1.0
  C  C207  1  0.08142000  0.86982000  0.55485000  1.0
  C  C208  1  0.35328000  0.94092000  0.62402000  1.0
  C  C209  1  0.28072000  0.90434000  0.50520000  1.0
  C  C210  1  0.27221000  0.04916000  0.54565000  1.0
  C  C211  1  0.01552000  0.80664000  0.55757000  1.0
  C  C212  1  0.78076000  0.35644000  0.21756000  1.0
  C  C213  1  0.77792000  0.41406000  0.21249000  1.0
  C  C214  1  0.71694000  0.41232000  0.21261500  1.0
  C  C215  1  0.65704000  0.35150000  0.21466500  1.0
  C  C216  1  0.65982000  0.29424000  0.22056000  1.0
  C  C217  1  0.72118000  0.29720000  0.22379000  1.0
  C  C218  1  0.72460000  0.59254000  0.23477000  1.0
  C  C219  1  0.73176000  0.58076000  0.20644000  1.0
  C  C220  1  0.72842000  0.52143000  0.19821000  1.0
  C  C221  1  0.71798000  0.47418000  0.21890000  1.0
  C  C222  1  0.71168000  0.48624000  0.24715000  1.0
  C  C223  1  0.71602000  0.54556000  0.25551000  1.0
  C  C224  1  0.84766000  0.36074000  0.21822000  1.0
  C  C225  1  0.59070000  0.34838000  0.21454500  1.0
  C  C226  1  0.73650000  0.50932000  0.16781000  1.0
  C  C227  1  0.71144000  0.55716000  0.28640500  1.0
  C  C228  1  0.48560000  0.86376000  0.83554000  1.0
  C  C229  1  0.48916000  0.88548000  0.80719000  1.0
  C  C230  1  0.54930000  0.91706000  0.79172000  1.0
  C  C231  1  0.60716000  0.92604000  0.80596000  1.0
  C  C232  1  0.60292000  0.90214000  0.83378000  1.0
  C  C233  1  0.54322000  0.87156000  0.84933000  1.0
  C  C234  1  0.56512000  0.99284000  0.70426000  1.0
  C  C235  1  0.53420000  0.00926000  0.72593500  1.0
  C  C236  1  0.52760000  0.98526000  0.75390000  1.0
  C  C237  1  0.55116000  0.94128000  0.76132000  1.0
  C  C238  1  0.57942000  0.92244000  0.73932000  1.0
  C  C239  1  0.58814000  0.94870000  0.71152000  1.0
  C  C240  1  0.41950000  0.83028000  0.85030000  1.0
  C  C241  1  0.67438000  0.95948000  0.79203000  1.0
  C  C242  1  0.49438000  0.00734000  0.77509000  1.0
  C  C243  1  0.62432000  0.93091000  0.69034000  1.0
  C  C244  1  0.62388000  0.09654000  0.49883000  1.0
  C  C245  1  0.64328000  0.11620000  0.47027000  1.0
  C  C246  1  0.66780000  0.08432000  0.45258000  1.0
  C  C247  1  0.67330000  0.03150000  0.46475500  1.0
  C  C248  1  0.65403000  0.01191000  0.49316000  1.0
  C  C249  1  0.62960000  0.04362000  0.51104000  1.0
  C  C250  1  0.74606000  0.15062000  0.36555000  1.0
  C  C251  1  0.77714000  0.18944000  0.38978000  1.0
  C  C252  1  0.75106000  0.17098000  0.41736000  1.0
  C  C253  1  0.69244000  0.10964000  0.42244000  1.0
  C  C254  1  0.65842000  0.07228000  0.39832000  1.0
  C  C255  1  0.68286000  0.09282000  0.37024000  1.0
  C  C256  1  0.59591000  0.13189000  0.51552000  1.0
  C  C257  1  0.70006000  0.99542000  0.44773000  1.0
  C  C258  1  0.78488000  0.22014000  0.44069000  1.0
  C  C259  1  0.63715000  0.05610000  0.34622000  1.0
  C  C260  1  0.87492000  0.18046000  0.16345000  1.0
  C  C261  1  0.89392000  0.17394000  0.13556000  1.0
  C  C262  1  0.84734000  0.13338000  0.11504000  1.0
  C  C263  1  0.77980000  0.09876000  0.12311000  1.0
  C  C264  1  0.76098000  0.10314000  0.15106000  1.0
  C  C265  1  0.80716000  0.14274000  0.17212000  1.0
  C  C266  1  0.91059000  0.10717000  0.03019000  1.0
  C  C267  1  0.90320000  0.06482000  0.05295000  1.0
  C  C268  1  0.88388000  0.07288000  0.08023000  1.0
  C  C269  1  0.86980000  0.12442000  0.08588000  1.0
  C  C270  1  0.87484000  0.16578000  0.06312000  1.0
  C  C271  1  0.89514000  0.15810000  0.03567000  1.0
  C  C272  1  0.92812000  0.22786000  0.18319000  1.0
  C  C273  1  0.72684000  0.05836000  0.10180000  1.0
  C  C274  1  0.87470000  0.02286000  0.10244000  1.0
  C  C275  1  0.89996000  0.20463000  0.01273000  1.0
  C  C276  1  0.97286000  0.03778000  0.83183000  1.0
  C  C277  1  0.97100000  0.01402000  0.80400000  1.0
  C  C278  1  0.92888000  0.01534000  0.78292000  1.0
  C  C279  1  0.88820000  0.04226000  0.79036000  1.0
  C  C280  1  0.88936000  0.06518000  0.81810000  1.0
  C  C281  1  0.93075000  0.06339000  0.83956000  1.0
  C  C282  1  0.90522000  0.92468000  0.69846000  1.0
  C  C283  1  0.88204000  0.88620000  0.72339000  1.0
  C  C284  1  0.89204000  0.91446000  0.75057000  1.0
  C  C285  1  0.92385000  0.98407000  0.75402000  1.0
  C  C286  1  0.94854000  0.02330000  0.72952000  1.0
  C  C287  1  0.94120000  0.99496000  0.70216000  1.0
  C  C288  1  0.02032000  0.03534000  0.85265000  1.0
  C  C289  1  0.84218000  0.04578000  0.76901500  1.0
  C  C290  1  0.86865000  0.86935000  0.77581000  1.0
  C  C291  1  0.97492000  0.04069000  0.67777000  1.0
  C  C292  1  0.90282000  0.88062000  0.48430000  1.0
  C  C293  1  0.87743000  0.85633000  0.45703000  1.0
  C  C294  1  0.80870000  0.81862000  0.45159000  1.0
  C  C295  1  0.76510000  0.80693000  0.47454000  1.0
  C  C296  1  0.79056000  0.82728000  0.50205000  1.0
  C  C297  1  0.85902000  0.86626000  0.50742000  1.0
  C  C298  1  0.72364000  0.75204000  0.36712000  1.0
  C  C299  1  0.70934000  0.70619000  0.38909000  1.0
  C  C300  1  0.74014000  0.72526000  0.41572000  1.0
  C  C301  1  0.78354000  0.79352000  0.42195000  1.0
  C  C302  1  0.80171000  0.83880000  0.39943000  1.0
  C  C303  1  0.77318000  0.81876000  0.37224000  1.0
  C  C304  1  0.97692000  0.92195000  0.48827000  1.0
  C  C305  1  0.69108000  0.77392000  0.47057000  1.0
  C  C306  1  0.72482000  0.67090000  0.43669000  1.0
  C  C307  1  0.79591000  0.86907000  0.34917000  1.0
  C  C308  1  0.58403000  0.71127000  0.16847000  1.0
  C  C309  1  0.56256000  0.71618000  0.14092000  1.0
  C  C310  1  0.59484000  0.77528000  0.12492000  1.0
  C  C311  1  0.64928000  0.83092000  0.13776500  1.0
  C  C312  1  0.67174000  0.82552000  0.16482000  1.0
  C  C313  1  0.64012000  0.76656000  0.18083000  1.0
  C  C314  1  0.53086000  0.79964000  0.03992000  1.0
  C  C315  1  0.48893000  0.78385000  0.06364000  1.0
  C  C316  1  0.50748000  0.77412000  0.09086000  1.0
  C  C317  1  0.57022000  0.77940000  0.09544000  1.0
  C  C318  1  0.61124000  0.79224000  0.07161000  1.0
  C  C319  1  0.59272000  0.80264000  0.04429000  1.0
  C  C320  1  0.54744000  0.64626000  0.18395000  1.0
  C  C321  1  0.68380000  0.89690000  0.12300000  1.0
  C  C322  1  0.45864000  0.75704000  0.11452000  1.0
  C  C323  1  0.63996000  0.81768000  0.02035000  1.0
  Cd  Cd324  1  0.42248000  0.88846000  0.99660000  1.0
  Cd  Cd325  1  0.59038000  0.75502000  0.91002000  1.0
  Cd  Cd326  1  0.49342000  0.81630000  0.94427000  1.0
  Cd  Cd327  1  0.62900000  0.18510000  0.65988000  1.0
  Cd  Cd328  1  0.53856000  0.88798000  0.57799000  1.0
  Cd  Cd329  1  0.57892000  0.03924000  0.60750000  1.0
  Cd  Cd330  1  0.94354000  0.27222000  0.32345000  1.0
  Cd  Cd331  1  0.65150000  0.08948000  0.23805000  1.0
  Cd  Cd332  1  0.80134000  0.18754000  0.26836000  1.0
  Cd  Cd333  1  0.04850000  0.04934000  0.99018000  1.0
  Cd  Cd334  1  0.87584000  0.17050000  0.90272000  1.0
  Cd  Cd335  1  0.96832000  0.11264000  0.93533000  1.0
  Cd  Cd336  1  0.81922000  0.72936000  0.65287000  1.0
  Cd  Cd337  1  0.97224000  0.02800000  0.56984000  1.0
  Cd  Cd338  1  0.90216000  0.87822000  0.60238000  1.0
  Cd  Cd339  1  0.51752000  0.64314000  0.33282000  1.0
  Cd  Cd340  1  0.80318000  0.80484000  0.24072000  1.0
  Cd  Cd341  1  0.65229000  0.71360000  0.27431000  1.0
  Cl  Cl342  1  0.39170000  0.79298000  0.96679000  1.0
  Cl  Cl343  1  0.59744000  0.82660000  0.94553000  1.0
  Cl  Cl344  1  0.54167000  0.10884000  0.62858500  1.0
  Cl  Cl345  1  0.61588000  0.96290000  0.60949000  1.0
  Cl  Cl346  1  0.87236000  0.29034000  0.29211000  1.0
  Cl  Cl347  1  0.72092000  0.07338000  0.26813000  1.0
  Cl  Cl348  1  0.06854000  0.14350000  0.96121500  1.0
  Cl  Cl349  1  0.85800000  0.08902000  0.93462000  1.0
  Cl  Cl350  1  0.91962000  0.79718000  0.62621000  1.0
  Cl  Cl351  1  0.89014000  0.97294000  0.60285000  1.0
  Cl  Cl352  1  0.57634000  0.61338000  0.29887000  1.0
  Cl  Cl353  1  0.74296000  0.82124000  0.27524000  1.0
  H  H354  1  0.72906000  0.88460000  0.97639000  1.0
  H  H355  1  0.89294000  0.96294000  0.90018000  1.0
  H  H356  1  0.63366000  0.99250000  0.99648000  1.0
  H  H357  1  0.67908000  0.96216000  0.89805000  1.0
  H  H358  1  0.86868000  0.86074000  0.98941000  1.0
  H  H359  1  0.79268000  0.85060000  0.00280000  1.0
  H  H360  1  0.86718000  0.93000000  0.00649000  1.0
  H  H361  1  0.73034000  0.91683000  0.87770000  1.0
  H  H362  1  0.81478000  0.95608000  0.86796500  1.0
  H  H363  1  0.78342000  0.00656000  0.88205000  1.0
  H  H364  1  0.73704000  0.96696000  0.00800000  1.0
  H  H365  1  0.76028000  0.05223000  0.00275000  1.0
  H  H366  1  0.80360000  0.01905000  0.98442000  1.0
  H  H367  1  0.53152000  0.96302000  0.90223000  1.0
  H  H368  1  0.60566000  0.99512000  0.88132000  1.0
  H  H369  1  0.59518000  0.04854000  0.90522000  1.0
  H  H370  1  0.69830000  0.92824000  0.64523000  1.0
  H  H371  1  0.75602000  0.82916000  0.56715000  1.0
  H  H372  1  0.77466000  0.12432000  0.65889000  1.0
  H  H373  1  0.74506000  0.03646000  0.56261000  1.0
  H  H374  1  0.65404000  0.75964000  0.65716000  1.0
  H  H375  1  0.65996000  0.83208000  0.67216000  1.0
  H  H376  1  0.73156000  0.82176000  0.67325000  1.0
  H  H377  1  0.72224000  0.94430000  0.54236000  1.0
  H  H378  1  0.77772000  0.91492000  0.53670000  1.0
  H  H379  1  0.81070000  0.99476000  0.55167000  1.0
  H  H380  1  0.77974000  0.01404000  0.67353000  1.0
  H  H381  1  0.86030000  0.08074000  0.66364000  1.0
  H  H382  1  0.83044000  0.00012000  0.64894000  1.0
  H  H383  1  0.71238000  0.16716000  0.56583000  1.0
  H  H384  1  0.74704000  0.12968000  0.54368000  1.0
  H  H385  1  0.80067000  0.20156000  0.56408000  1.0
  H  H386  1  0.67848000  0.89876000  0.23004000  1.0
  H  H387  1  0.61689000  0.84921000  0.32995000  1.0
  H  H388  1  0.88160000  0.12072000  0.23181000  1.0
  H  H389  1  0.81867000  0.94933000  0.30365000  1.0
  H  H390  1  0.52942000  0.74384000  0.23914000  1.0
  H  H391  1  0.57563000  0.81083000  0.21536000  1.0
  H  H392  1  0.51522000  0.81304000  0.23802000  1.0
  H  H393  1  0.75539000  0.96150000  0.33637000  1.0
  H  H394  1  0.68307000  0.96742000  0.33996000  1.0
  H  H395  1  0.74736000  0.02267000  0.31653000  1.0
  H  H396  1  0.81692000  0.03767000  0.19865000  1.0
  H  H397  1  0.73450000  0.00226000  0.21292000  1.0
  H  H398  1  0.77553000  0.95317000  0.20870000  1.0
  H  H399  1  0.90074000  0.08268000  0.33701000  1.0
  H  H400  1  0.97482000  0.10132000  0.31704000  1.0
  H  H401  1  0.91950000  0.01842000  0.32832000  1.0
  H  H402  1  0.41338000  0.01441000  0.12326000  1.0
  H  H403  1  0.30309000  0.79675000  0.07488000  1.0
  H  H404  1  0.42670000  0.99402000  0.21812000  1.0
  H  H405  1  0.46092000  0.88046000  0.13744000  1.0
  H  H406  1  0.37470000  0.02302000  0.04898000  1.0
  H  H407  1  0.45768000  0.04934000  0.06204000  1.0
  H  H408  1  0.40186000  0.06730000  0.08133000  1.0
  H  H409  1  0.34004000  0.77298000  0.13827000  1.0
  H  H410  1  0.26360000  0.73990000  0.11870000  1.0
  H  H411  1  0.27420000  0.78670000  0.15010000  1.0
  H  H412  1  0.34470000  0.00506000  0.16858500  1.0
  H  H413  1  0.31568000  0.96098000  0.20138000  1.0
  H  H414  1  0.28560000  0.91682000  0.16901000  1.0
  H  H415  1  0.56668000  0.89604000  0.19395000  1.0
  H  H416  1  0.60320000  0.96784000  0.17105000  1.0
  H  H417  1  0.55502000  0.88576000  0.15699000  1.0
  H  H418  1  0.57032000  0.20324000  0.79752000  1.0
  H  H419  1  0.75634000  0.31226000  0.72989000  1.0
  H  H420  1  0.71184000  0.10420000  0.84372000  1.0
  H  H421  1  0.71504000  0.31898000  0.84030000  1.0
  H  H422  1  0.50554000  0.15221000  0.73851000  1.0
  H  H423  1  0.52070000  0.23414000  0.72861500  1.0
  H  H424  1  0.49434000  0.20406000  0.76342000  1.0
  H  H425  1  0.81108000  0.34230000  0.80136000  1.0
  H  H426  1  0.83589000  0.34539000  0.76565000  1.0
  H  H427  1  0.80896000  0.27040000  0.78560000  1.0
  H  H428  1  0.63992000  0.06596000  0.80324500  1.0
  H  H429  1  0.70478000  0.12992000  0.78209000  1.0
  H  H430  1  0.62292000  0.12028000  0.78317000  1.0
  H  H431  1  0.82421000  0.33967000  0.88379500  1.0
  H  H432  1  0.76368000  0.28224000  0.90867000  1.0
  H  H433  1  0.74672000  0.33814000  0.88943500  1.0
  H  H434  1  0.00212000  0.36295000  0.46353000  1.0
  H  H435  1  0.06325000  0.25037000  0.39099000  1.0
  H  H436  1  0.90552000  0.15299000  0.52622500  1.0
  H  H437  1  0.13198000  0.31683000  0.49372000  1.0
  H  H438  1  0.92951000  0.36629000  0.40678000  1.0
  H  H439  1  0.01051000  0.42766000  0.39335000  1.0
  H  H440  1  0.98997000  0.43018000  0.42924000  1.0
  H  H441  1  0.12709000  0.24175000  0.45431000  1.0
  H  H442  1  0.08774000  0.19284000  0.42379000  1.0
  H  H443  1  0.04139000  0.17512000  0.45574500  1.0
  H  H444  1  0.85572000  0.17461000  0.48936000  1.0
  H  H445  1  0.90362000  0.19904000  0.45767500  1.0
  H  H446  1  0.89885000  0.26058000  0.47954000  1.0
  H  H447  1  0.15148000  0.21967000  0.53277500  1.0
  H  H448  1  0.12674000  0.24777000  0.56365000  1.0
  H  H449  1  0.17790000  0.30631000  0.53758500  1.0
  H  H450  1  0.14727000  0.09868000  0.13005000  1.0
  H  H451  1  0.00804000  0.92044000  0.06258000  1.0
  H  H452  1  0.93839000  0.00342000  0.19818000  1.0
  H  H453  1  0.08546000  0.92296000  0.16190000  1.0
  H  H454  1  0.21008000  0.13396000  0.05827000  1.0
  H  H455  1  0.22072000  0.16464000  0.09337000  1.0
  H  H456  1  0.16152000  0.17024000  0.07081000  1.0
  H  H457  1  0.99022000  0.85254000  0.12603000  1.0
  H  H458  1  0.93935000  0.85149000  0.09750500  1.0
  H  H459  1  0.93753000  0.88895000  0.12996000  1.0
  H  H460  1  0.97212000  0.08465000  0.16316000  1.0
  H  H461  1  0.99996000  0.06708000  0.13087000  1.0
  H  H462  1  0.05957000  0.12052000  0.15660000  1.0
  H  H463  1  0.98568000  0.80924000  0.20039000  1.0
  H  H464  1  0.01716000  0.85971000  0.23188000  1.0
  H  H465  1  0.07339000  0.86459000  0.20526000  1.0
  H  H466  1  0.84404000  0.70540000  0.79166000  1.0
  H  H467  1  0.67696000  0.58119000  0.71800000  1.0
  H  H468  1  0.67268000  0.77472000  0.83012000  1.0
  H  H469  1  0.73100000  0.59670000  0.83426000  1.0
  H  H470  1  0.91734000  0.68782000  0.72730000  1.0
  H  H471  1  0.93254000  0.72286000  0.76160500  1.0
  H  H472  1  0.91644000  0.76460000  0.73354000  1.0
  H  H473  1  0.59836000  0.59921000  0.76563000  1.0
  H  H474  1  0.61144000  0.54782000  0.79037000  1.0
  H  H475  1  0.59368000  0.52287000  0.75443500  1.0
  H  H476  1  0.71396000  0.79988000  0.78211000  1.0
  H  H477  1  0.64662000  0.72002000  0.77185000  1.0
  H  H478  1  0.73074000  0.74448000  0.76248000  1.0
  H  H479  1  0.64326000  0.58423000  0.89021000  1.0
  H  H480  1  0.71756000  0.65682000  0.90287000  1.0
  H  H481  1  0.72400000  0.59342000  0.88422000  1.0
  H  H482  1  0.40058000  0.66768000  0.46102000  1.0
  H  H483  1  0.49528000  0.54044000  0.41716000  1.0
  H  H484  1  0.39150000  0.67844000  0.54989000  1.0
  H  H485  1  0.56510000  0.66514000  0.49525000  1.0
  H  H486  1  0.42080000  0.71019000  0.39779000  1.0
  H  H487  1  0.34700000  0.66736000  0.41885000  1.0
  H  H488  1  0.35398000  0.62798000  0.38804000  1.0
  H  H489  1  0.55361000  0.56605000  0.47440000  1.0
  H  H490  1  0.48618000  0.48666000  0.46334000  1.0
  H  H491  1  0.47768000  0.52378000  0.49474000  1.0
  H  H492  1  0.31988000  0.61638000  0.49796000  1.0
  H  H493  1  0.30916000  0.56798000  0.52908000  1.0
  H  H494  1  0.32867000  0.54325000  0.49656000  1.0
  H  H495  1  0.62046000  0.74438000  0.56377500  1.0
  H  H496  1  0.64250000  0.79466000  0.53224000  1.0
  H  H497  1  0.64345000  0.71753000  0.53282500  1.0
  H  H498  1  0.23290000  0.49428000  0.94226000  1.0
  H  H499  1  0.40458000  0.61570000  0.86968000  1.0
  H  H500  1  0.03304000  0.36606000  0.89756000  1.0
  H  H501  1  0.25290000  0.38032000  0.89243000  1.0
  H  H502  1  0.32396000  0.64208000  0.96588000  1.0
  H  H503  1  0.38966000  0.62256000  0.97088000  1.0
  H  H504  1  0.30560000  0.56163000  0.97842000  1.0
  H  H505  1  0.30412000  0.46010000  0.84781000  1.0
  H  H506  1  0.33648000  0.54274000  0.83402000  1.0
  H  H507  1  0.24922000  0.49257000  0.84077000  1.0
  H  H508  1  0.13825000  0.51191000  0.91521000  1.0
  H  H509  1  0.08257000  0.48181000  0.88556000  1.0
  H  H510  1  0.17011000  0.53151000  0.87974000  1.0
  H  H511  1  0.11154000  0.21166000  0.88258000  1.0
  H  H512  1  0.15734000  0.23818000  0.91532000  1.0
  H  H513  1  0.19982000  0.26290000  0.88210000  1.0
  H  H514  1  0.24400000  0.93029000  0.59996000  1.0
  H  H515  1  0.39300000  0.91802000  0.52876500  1.0
  H  H516  1  0.15395000  0.03925000  0.55438000  1.0
  H  H517  1  0.13554000  0.81744000  0.55137000  1.0
  H  H518  1  0.38714000  0.99434000  0.62853000  1.0
  H  H519  1  0.37748000  0.91206000  0.63023500  1.0
  H  H520  1  0.30820000  0.92316000  0.63726000  1.0
  H  H521  1  0.22804000  0.86509000  0.50248000  1.0
  H  H522  1  0.31170000  0.88945000  0.49287000  1.0
  H  H523  1  0.28772000  0.95178000  0.49662000  1.0
  H  H524  1  0.26646000  0.09082000  0.53756000  1.0
  H  H525  1  0.30572000  0.04278000  0.53102000  1.0
  H  H526  1  0.29566000  0.06272000  0.56671000  1.0
  H  H527  1  0.97470000  0.81301000  0.54892000  1.0
  H  H528  1  0.00557000  0.79193000  0.57996000  1.0
  H  H529  1  0.01554000  0.76561000  0.54564000  1.0
  H  H530  1  0.82362000  0.46134000  0.21065000  1.0
  H  H531  1  0.61406000  0.24816000  0.22454500  1.0
  H  H532  1  0.73900000  0.61754000  0.19074500  1.0
  H  H533  1  0.70462000  0.44942000  0.26283000  1.0
  H  H534  1  0.86662000  0.36906000  0.24007000  1.0
  H  H535  1  0.88414000  0.40238000  0.20498000  1.0
  H  H536  1  0.84420000  0.31458000  0.20984000  1.0
  H  H537  1  0.57936000  0.35904000  0.23590000  1.0
  H  H538  1  0.55052000  0.29846000  0.20796000  1.0
  H  H539  1  0.59098000  0.38508000  0.19956000  1.0
  H  H540  1  0.78352000  0.50862000  0.16496000  1.0
  H  H541  1  0.73790000  0.54856000  0.15404000  1.0
  H  H542  1  0.69424000  0.46092000  0.16098000  1.0
  H  H543  1  0.66036000  0.54600000  0.29157000  1.0
  H  H544  1  0.74758000  0.60924000  0.29223000  1.0
  H  H545  1  0.72316000  0.52486000  0.29953000  1.0
  H  H546  1  0.44398000  0.87674000  0.79690000  1.0
  H  H547  1  0.64756000  0.90800000  0.84359000  1.0
  H  H548  1  0.51610000  0.04300000  0.72113000  1.0
  H  H549  1  0.59652000  0.88790000  0.74402000  1.0
  H  H550  1  0.40790000  0.78042000  0.85783000  1.0
  H  H551  1  0.37856000  0.82362000  0.83621000  1.0
  H  H552  1  0.42092000  0.86094000  0.86842000  1.0
  H  H553  1  0.68126000  0.92218000  0.78026000  1.0
  H  H554  1  0.71464000  0.98312000  0.80788000  1.0
  H  H555  1  0.68028000  0.99944000  0.77757000  1.0
  H  H556  1  0.49958000  0.05590000  0.76913000  1.0
  H  H557  1  0.51686000  0.01396000  0.79621000  1.0
  H  H558  1  0.44068000  0.97014000  0.77623000  1.0
  H  H559  1  0.66064000  0.97594000  0.67875000  1.0
  H  H560  1  0.58830000  0.89390000  0.67536000  1.0
  H  H561  1  0.65270000  0.91006000  0.70065000  1.0
  H  H562  1  0.63905000  0.15701000  0.46162000  1.0
  H  H563  1  0.65870000  0.97112000  0.50152000  1.0
  H  H564  1  0.82299000  0.23623000  0.38731000  1.0
  H  H565  1  0.61134000  0.02706000  0.40140000  1.0
  H  H566  1  0.54753000  0.09533000  0.52493000  1.0
  H  H567  1  0.58709000  0.16590000  0.50219000  1.0
  H  H568  1  0.63112000  0.16181000  0.53236000  1.0
  H  H569  1  0.66438000  0.96644000  0.43083000  1.0
  H  H570  1  0.70812000  0.96050000  0.46079000  1.0
  H  H571  1  0.74853000  0.03149000  0.43823000  1.0
  H  H572  1  0.83816000  0.25417000  0.43587000  1.0
  H  H573  1  0.78200000  0.19480000  0.46072000  1.0
  H  H574  1  0.76040000  0.25028000  0.44347000  1.0
  H  H575  1  0.66432000  0.05329000  0.32782000  1.0
  H  H576  1  0.61002000  0.08208000  0.34002000  1.0
  H  H577  1  0.60028000  0.00437000  0.35226000  1.0
  H  H578  1  0.94589000  0.20111000  0.12968000  1.0
  H  H579  1  0.70872000  0.07494000  0.15626000  1.0
  H  H580  1  0.91322000  0.02456000  0.04952000  1.0
  H  H581  1  0.86302000  0.20468000  0.06686000  1.0
  H  H582  1  0.93882000  0.19995000  0.19916000  1.0
  H  H583  1  0.91250000  0.26060000  0.19351000  1.0
  H  H584  1  0.97514000  0.26078000  0.17191000  1.0
  H  H585  1  0.72550000  0.09186000  0.08555000  1.0
  H  H586  1  0.67682000  0.03052000  0.11152000  1.0
  H  H587  1  0.73753000  0.02195000  0.09151000  1.0
  H  H588  1  0.88601000  0.04520000  0.12368000  1.0
  H  H589  1  0.90783000  0.00203000  0.09861000  1.0
  H  H590  1  0.82268000  0.98164000  0.10205000  1.0
  H  H591  1  0.86019000  0.17679000  0.99711000  1.0
  H  H592  1  0.94926000  0.22692000  0.00238000  1.0
  H  H593  1  0.89380000  0.24592000  0.02094000  1.0
  H  H594  1  0.00278000  0.99396000  0.79863000  1.0
  H  H595  1  0.85670000  0.08450000  0.82294500  1.0
  H  H596  1  0.85584000  0.83254000  0.72194000  1.0
  H  H597  1  0.97462000  0.07680000  0.73184500  1.0
  H  H598  1  0.05309000  0.08549000  0.86154000  1.0
  H  H599  1  0.05283000  0.01877000  0.84275000  1.0
  H  H600  1  0.99220000  0.99992000  0.86974000  1.0
  H  H601  1  0.87130000  0.07774000  0.75117000  1.0
  H  H602  1  0.81304000  0.06730000  0.77799000  1.0
  H  H603  1  0.80686000  0.99524000  0.76111000  1.0
  H  H604  1  0.84346000  0.81630000  0.76972000  1.0
  H  H605  1  0.83366000  0.87820000  0.78840000  1.0
  H  H606  1  0.91172000  0.87864000  0.78902000  1.0
  H  H607  1  0.93836000  0.03361000  0.66139000  1.0
  H  H608  1  0.01290000  0.03039000  0.66880000  1.0
  H  H609  1  0.00022000  0.09371000  0.68412000  1.0
  H  H610  1  0.91172000  0.86708000  0.43979000  1.0
  H  H611  1  0.75604000  0.81512000  0.51918000  1.0
  H  H612  1  0.67302000  0.65438000  0.38551000  1.0
  H  H613  1  0.83706000  0.89070000  0.40330000  1.0
  H  H614  1  0.99262000  0.90406000  0.50673000  1.0
  H  H615  1  0.99132000  0.97476000  0.49144000  1.0
  H  H616  1  0.00434000  0.91891000  0.46978000  1.0
  H  H617  1  0.67703000  0.77704000  0.44864000  1.0
  H  H618  1  0.67044000  0.79873000  0.48368000  1.0
  H  H619  1  0.66824000  0.72129000  0.47693000  1.0
  H  H620  1  0.75816000  0.68869000  0.45518000  1.0
  H  H621  1  0.73144000  0.63150000  0.42665000  1.0
  H  H622  1  0.67244000  0.64833000  0.44371000  1.0
  H  H623  1  0.82833000  0.86096000  0.33455000  1.0
  H  H624  1  0.82419000  0.92055000  0.35741500  1.0
  H  H625  1  0.75239000  0.86381000  0.33751000  1.0
  H  H626  1  0.52046000  0.67315000  0.13170000  1.0
  H  H627  1  0.71444000  0.86854000  0.17367000  1.0
  H  H628  1  0.44074000  0.77986000  0.06104000  1.0
  H  H629  1  0.65892000  0.79526000  0.07444000  1.0
  H  H630  1  0.52188000  0.65204000  0.20248000  1.0
  H  H631  1  0.58272000  0.63010000  0.19092000  1.0
  H  H632  1  0.50942000  0.60634000  0.17051000  1.0
  H  H633  1  0.71266000  0.89436000  0.10503000  1.0
  H  H634  1  0.71824000  0.93752000  0.13718000  1.0
  H  H635  1  0.64660000  0.90972000  0.11523000  1.0
  H  H636  1  0.42108000  0.77148000  0.10934000  1.0
  H  H637  1  0.48390000  0.78350000  0.13403000  1.0
  H  H638  1  0.43256000  0.70274000  0.11838000  1.0
  H  H639  1  0.64424000  0.86014000  0.00815000  1.0
  H  H640  1  0.62140000  0.77354000  0.00653000  1.0
  H  H641  1  0.69044000  0.83132000  0.02782000  1.0
  O  O642  1  0.51326000  0.96702000  0.98475000  1.0
  O  O643  1  0.48548000  0.89870000  0.94879000  1.0
  O  O644  1  0.41922000  0.94990000  0.02657000  1.0
  O  O645  1  0.35000000  0.84304000  0.02674000  1.0
  O  O646  1  0.57906000  0.81360000  0.88066000  1.0
  O  O647  1  0.50778000  0.84486000  0.89995000  1.0
  O  O648  1  0.36908000  0.89738000  0.96564500  1.0
  O  O649  1  0.49332000  0.68374000  0.90948000  1.0
  O  O650  1  0.43058000  0.72184000  0.93270000  1.0
  O  O651  1  0.60398000  0.68040000  0.89456000  1.0
  O  O652  1  0.67216000  0.78626000  0.88546000  1.0
  O  O653  1  0.47216000  0.84622000  0.01606000  1.0
  O  O654  1  0.52506000  0.80702000  0.98678000  1.0
  O  O655  1  0.63026000  0.75652000  0.94735500  1.0
  O  O656  1  0.71661000  0.19249000  0.64666000  1.0
  O  O657  1  0.64840000  0.13681000  0.61204000  1.0
  O  O658  1  0.68918000  0.25750000  0.68751000  1.0
  O  O659  1  0.58211000  0.19725000  0.69403000  1.0
  O  O660  1  0.58682000  0.95266000  0.54502000  1.0
  O  O661  1  0.60488000  0.05291000  0.56236000  1.0
  O  O662  1  0.61401000  0.23967000  0.63147000  1.0
  O  O663  1  0.46238000  0.90172000  0.56939500  1.0
  O  O664  1  0.48188000  0.99282000  0.59639000  1.0
  O  O665  1  0.46932000  0.79132000  0.57005000  1.0
  O  O666  1  0.57526000  0.82842000  0.56412000  1.0
  O  O667  1  0.59832000  0.09436000  0.67915000  1.0
  O  O668  1  0.57382000  0.00296000  0.65095000  1.0
  O  O669  1  0.52756000  0.87930000  0.61962000  1.0
  O  O670  1  0.94962000  0.19350000  0.30780000  1.0
  O  O671  1  0.89763000  0.20947000  0.27263000  1.0
  O  O672  1  0.01314000  0.27469000  0.35031000  1.0
  O  O673  1  0.95892000  0.32663000  0.35973000  1.0
  O  O674  1  0.71576000  0.10560000  0.20541000  1.0
  O  O675  1  0.81876000  0.17572000  0.22378000  1.0
  O  O676  1  0.00096000  0.34640000  0.29731500  1.0
  O  O677  1  0.67476000  0.18052000  0.22582500  1.0
  O  O678  1  0.76644000  0.24668000  0.25343000  1.0
  O  O679  1  0.55640000  0.06140000  0.22653000  1.0
  O  O680  1  0.59464000  0.99259000  0.22505000  1.0
  O  O681  1  0.84990000  0.21375000  0.34076000  1.0
  O  O682  1  0.75854000  0.15678000  0.31151000  1.0
  O  O683  1  0.63999000  0.10567000  0.27827000  1.0
  O  O684  1  0.97086000  0.96435000  0.97365000  1.0
  O  O685  1  0.98760000  0.03718000  0.94068000  1.0
  O  O686  1  0.05152000  0.98556000  0.01884000  1.0
  O  O687  1  0.10272000  0.09266000  0.02615000  1.0
  O  O688  1  0.89466000  0.12184000  0.87101000  1.0
  O  O689  1  0.95784000  0.08258000  0.89141000  1.0
  O  O690  1  0.12108000  0.06318000  0.96366000  1.0
  O  O691  1  0.96896000  0.23924000  0.89346500  1.0
  O  O692  1  0.02932000  0.20842000  0.92246000  1.0
  O  O693  1  0.84582000  0.23582000  0.89031000  1.0
  O  O694  1  0.77918000  0.12824000  0.88908000  1.0
  O  O695  1  0.98306000  0.07672000  0.00664000  1.0
  O  O696  1  0.92978000  0.11534000  0.97728000  1.0
  O  O697  1  0.88746000  0.19674000  0.94306000  1.0
  O  O698  1  0.74146000  0.73920000  0.63826000  1.0
  O  O699  1  0.81808000  0.78988000  0.60623000  1.0
  O  O700  1  0.74996000  0.66056000  0.67957000  1.0
  O  O701  1  0.85628000  0.70496000  0.68717000  1.0
  O  O702  1  0.91942000  0.96226000  0.53779000  1.0
  O  O703  1  0.87183000  0.85953000  0.55898000  1.0
  O  O704  1  0.82258000  0.67066000  0.62294500  1.0
  O  O705  1  0.02963000  0.99195000  0.55793000  1.0
  O  O706  1  0.99480000  0.90235000  0.58820000  1.0
  O  O707  1  0.04330000  0.11992000  0.55576000  1.0
  O  O708  1  0.93868000  0.09138000  0.55898500  1.0
  O  O709  1  0.85928000  0.82186000  0.67214000  1.0
  O  O710  1  0.91098000  0.91756000  0.64510000  1.0
  O  O711  1  0.00764000  0.03944000  0.60889000  1.0
  O  O712  1  0.52277000  0.72955000  0.31936000  1.0
  O  O713  1  0.56152000  0.70154000  0.28286000  1.0
  O  O714  1  0.46098000  0.65110000  0.36358000  1.0
  O  O715  1  0.49770000  0.58140000  0.36713000  1.0
  O  O716  1  0.73589000  0.79833000  0.21083000  1.0
  O  O717  1  0.63375000  0.73001000  0.23103000  1.0
  O  O718  1  0.44864000  0.57756000  0.30662000  1.0
  O  O719  1  0.77260000  0.70950000  0.23106000  1.0
  O  O720  1  0.68120000  0.65016000  0.26012000  1.0
  O  O721  1  0.89317000  0.82447000  0.22516000  1.0
  O  O722  1  0.86728000  0.90225000  0.22897500  1.0
  O  O723  1  0.61430000  0.69264000  0.34757000  1.0
  O  O724  1  0.70059000  0.74487000  0.31514000  1.0
  O  O725  1  0.82192000  0.79474000  0.28080000  1.0
