# generated using pymatgen
data_Nd2H15C30S3N4O21
_symmetry_space_group_name_H-M   'P 1'
_cell_length_a   9.79813333
_cell_length_b   17.16655000
_cell_length_c   21.93970000
_cell_angle_alpha   90.01000000
_cell_angle_beta   90.00000000
_cell_angle_gamma   90.00000000
_symmetry_Int_Tables_number   1
_chemical_formula_structural   Nd2H15C30S3N4O21
_chemical_formula_sum   'Nd8 H60 C120 S12 N16 O84'
_cell_volume   3690.26068202
_cell_formula_units_Z   4
loop_
 _symmetry_equiv_pos_site_id
 _symmetry_equiv_pos_as_xyz
  1  'x, y, z'
loop_
 _atom_site_type_symbol
 _atom_site_label
 _atom_site_symmetry_multiplicity
 _atom_site_fract_x
 _atom_site_fract_y
 _atom_site_fract_z
 _atom_site_occupancy
  C  C0  1  0.06124000  0.23868000  0.11852000  1.0
  C  C1  1  0.43120000  0.21098000  0.16424000  1.0
  C  C2  1  0.09365000  0.10104000  0.00218000  1.0
  C  C3  1  0.37971000  0.99620000  0.10556000  1.0
  C  C4  1  0.58845000  0.96580000  0.09502000  1.0
  C  C5  1  0.56350000  0.03238000  0.06196000  1.0
  C  C6  1  0.35108000  0.19212000  0.88562000  1.0
  C  C7  1  0.96740000  0.24092000  0.84408000  1.0
  C  C8  1  0.33952000  0.35954000  0.99046000  1.0
  C  C9  1  0.06885000  0.47690000  0.93722000  1.0
  C  C10  1  0.88932000  0.50002000  0.88578000  1.0
  C  C11  1  0.89800000  0.42154000  0.89640000  1.0
  C  C12  1  0.53596000  0.75424000  0.10392000  1.0
  C  C13  1  0.91850000  0.79732000  0.15254000  1.0
  C  C14  1  0.63877000  0.61744000  0.03036000  1.0
  C  C15  1  0.13656000  0.63958000  0.03316000  1.0
  C  C16  1  0.11945000  0.53696000  0.08620000  1.0
  C  C17  1  0.00257000  0.58002000  0.09416000  1.0
  C  C18  1  0.88902000  0.75006000  0.88364000  1.0
  C  C19  1  0.53496000  0.71204000  0.82428000  1.0
  C  C20  1  0.70685000  0.90004000  0.97284000  1.0
  C  C21  1  0.32100000  0.89996000  0.95688000  1.0
  C  C22  1  0.19655000  0.89470000  0.87776000  1.0
  C  C23  1  0.30644000  0.84706000  0.86938000  1.0
  C  C24  1  0.06861000  0.79572000  0.38098000  1.0
  C  C25  1  0.42928000  0.78988000  0.32842000  1.0
  C  C26  1  0.16581000  0.90260000  0.50442000  1.0
  C  C27  1  0.50515000  0.98120000  0.43264000  1.0
  C  C28  1  0.72113500  0.96896000  0.43030000  1.0
  C  C29  1  0.66535000  0.89864000  0.44566000  1.0
  C  C30  1  0.40460500  0.71680000  0.59808000  1.0
  C  C31  1  0.04797000  0.72610000  0.65606000  1.0
  C  C32  1  0.30887000  0.62090000  0.48462000  1.0
  C  C33  1  0.96423000  0.58424000  0.45690000  1.0
  C  C34  1  0.76134000  0.60448000  0.48462000  1.0
  C  C35  1  0.84401000  0.61550000  0.53320000  1.0
  C  C36  1  0.58212000  0.25838000  0.38914000  1.0
  C  C37  1  0.95762000  0.24208000  0.35454000  1.0
  C  C38  1  0.69321000  0.40308000  0.49146000  1.0
  C  C39  1  0.08642000  0.41820000  0.50782000  1.0
  C  C40  1  0.19030500  0.44696000  0.42600000  1.0
  C  C41  1  0.07278000  0.40906000  0.41108000  1.0
  C  C42  1  0.84141000  0.29216000  0.61222000  1.0
  C  C43  1  0.50423000  0.21256000  0.66368000  1.0
  C  C44  1  0.79675000  0.12086000  0.54938000  1.0
  C  C45  1  0.27620000  0.12700000  0.55438000  1.0
  C  C46  1  0.32636000  0.01438000  0.58744000  1.0
  C  C47  1  0.43762000  0.04448000  0.55774000  1.0
  C  C48  1  0.65493000  0.41802000  0.07362000  1.0
  C  C49  1  0.62760000  0.49498000  0.08464000  1.0
  C  C50  1  0.57301000  0.53686000  0.03656000  1.0
  C  C51  1  0.47245000  0.49476000  0.00138000  1.0
  C  C52  1  0.45339000  0.41150000  0.01238000  1.0
  C  C53  1  0.55622000  0.37382000  0.04446000  1.0
  C  C54  1  0.56933000  0.54194000  0.37392000  1.0
  C  C55  1  0.46536000  0.58416000  0.40130000  1.0
  C  C56  1  0.41930000  0.56714000  0.46010000  1.0
  C  C57  1  0.48320000  0.50260000  0.49230000  1.0
  C  C58  1  0.58387000  0.45468000  0.46226000  1.0
  C  C59  1  0.61627000  0.47410000  0.40154000  1.0
  C  C60  1  0.92720000  0.01374000  0.86420000  1.0
  C  C61  1  0.00467000  0.06002000  0.90276000  1.0
  C  C62  1  0.99847000  0.05138000  0.96631000  1.0
  C  C63  1  0.90810000  0.99496000  0.99180000  1.0
  C  C64  1  0.82605000  0.94836000  0.95262000  1.0
  C  C65  1  0.84147000  0.95734000  0.88904000  1.0
  C  C66  1  0.82730000  0.90974000  0.58068000  1.0
  C  C67  1  0.80196000  0.98804000  0.58842000  1.0
  C  C68  1  0.86758000  0.04306000  0.55166000  1.0
  C  C69  1  0.98718000  0.01848000  0.51848000  1.0
  C  C70  1  0.02959000  0.93816000  0.52152000  1.0
  C  C71  1  0.93652000  0.88574000  0.54522000  1.0
  C  C72  1  0.64212000  0.10150000  0.27478000  1.0
  C  C73  1  0.63363000  0.14484000  0.32784000  1.0
  C  C74  1  0.55143000  0.21130000  0.33268000  1.0
  C  C75  1  0.47201000  0.23304000  0.28064000  1.0
  C  C76  1  0.48710000  0.18998000  0.22496000  1.0
  C  C77  1  0.56948000  0.12384000  0.22404000  1.0
  C  C78  1  0.32003000  0.64100000  0.21504000  1.0
  C  C79  1  0.38127000  0.66678000  0.16092000  1.0
  C  C80  1  0.45577000  0.73688000  0.15946000  1.0
  C  C81  1  0.47739000  0.77790000  0.21464000  1.0
  C  C82  1  0.41297000  0.75240000  0.26854000  1.0
  C  C83  1  0.32678000  0.68752000  0.26668000  1.0
  C  C84  1  0.66967500  0.60366000  0.68768000  1.0
  C  C85  1  0.64958000  0.63110000  0.74694000  1.0
  C  C86  1  0.54253000  0.68240000  0.76060000  1.0
  C  C87  1  0.46123000  0.71162000  0.71208000  1.0
  C  C88  1  0.48771000  0.68864000  0.65086000  1.0
  C  C89  1  0.58699500  0.63154000  0.64026000  1.0
  C  C90  1  0.47774000  0.04554000  0.76992000  1.0
  C  C91  1  0.48788000  0.09060000  0.71810000  1.0
  C  C92  1  0.45730000  0.16980000  0.71850000  1.0
  C  C93  1  0.40329000  0.20274000  0.77218000  1.0
  C  C94  1  0.40230000  0.15894000  0.82726000  1.0
  C  C95  1  0.43976000  0.07964000  0.82532000  1.0
  C  C96  1  0.07601000  0.94038000  0.26172000  1.0
  C  C97  1  0.03197000  0.90196000  0.20958000  1.0
  C  C98  1  0.96258000  0.83072000  0.21316000  1.0
  C  C99  1  0.95592000  0.79268000  0.27178000  1.0
  C  C100  1  0.00253000  0.83262000  0.32572000  1.0
  C  C101  1  0.04646000  0.90998000  0.31878000  1.0
  C  C102  1  0.80169000  0.32516000  0.22496000  1.0
  C  C103  1  0.87937000  0.32956000  0.27704000  1.0
  C  C104  1  0.97499000  0.27164000  0.28986000  1.0
  C  C105  1  0.03764000  0.23572000  0.23816000  1.0
  C  C106  1  0.98260000  0.25012000  0.17784000  1.0
  C  C107  1  0.84994000  0.28196000  0.17534000  1.0
  C  C108  1  0.67162000  0.32842000  0.76358000  1.0
  C  C109  1  0.70997000  0.33220000  0.70290000  1.0
  C  C110  1  0.82920000  0.29583000  0.68124000  1.0
  C  C111  1  0.92107000  0.26336000  0.72590000  1.0
  C  C112  1  0.87965000  0.25890000  0.78888000  1.0
  C  C113  1  0.74696000  0.28368000  0.80366000  1.0
  C  C114  1  0.14380000  0.62712000  0.79850000  1.0
  C  C115  1  0.11791000  0.64458000  0.73880000  1.0
  C  C116  1  0.03383000  0.70647000  0.72200000  1.0
  C  C117  1  0.95558000  0.74458000  0.76826000  1.0
  C  C118  1  0.97764000  0.72482000  0.83086000  1.0
  C  C119  1  0.08301000  0.67116000  0.84444000  1.0
  H  H120  1  0.27637000  0.99558000  0.12218000  1.0
  H  H121  1  0.68616000  0.93742000  0.10082000  1.0
  H  H122  1  0.63829000  0.06746000  0.03826000  1.0
  H  H123  1  0.16157000  0.48676000  0.96190000  1.0
  H  H124  1  0.80771000  0.53034000  0.86280000  1.0
  H  H125  1  0.82124000  0.37980000  0.88540000  1.0
  H  H126  1  0.17568000  0.68292000  0.00194000  1.0
  H  H127  1  0.13992000  0.48026000  0.10526000  1.0
  H  H128  1  0.91587500  0.56518000  0.12204000  1.0
  H  H129  1  0.35314000  0.91068000  0.00306000  1.0
  H  H130  1  0.11294500  0.90132000  0.84632000  1.0
  H  H131  1  0.32132000  0.80912000  0.83080000  1.0
  H  H132  1  0.40510000  0.00632000  0.42654000  1.0
  H  H133  1  0.82785000  0.98058000  0.42230000  1.0
  H  H134  1  0.71914500  0.84406000  0.45072000  1.0
  H  H135  1  0.05037000  0.58386000  0.42622000  1.0
  H  H136  1  0.65683000  0.62238000  0.48302000  1.0
  H  H137  1  0.81454000  0.64638000  0.57334000  1.0
  H  H138  1  0.06808000  0.40768000  0.55568000  1.0
  H  H139  1  0.26780000  0.46532000  0.39438000  1.0
  H  H140  1  0.04540000  0.39080000  0.36600000  1.0
  H  H141  1  0.22422000  0.18234000  0.55006000  1.0
  H  H142  1  0.32152000  0.95934000  0.61130000  1.0
  H  H143  1  0.53801000  0.01964000  0.55652000  1.0
  H  H144  1  0.69793000  0.52384000  0.11446000  1.0
  H  H145  1  0.40890500  0.52584000  0.97028000  1.0
  H  H146  1  0.56948000  0.31156000  0.03986000  1.0
  H  H147  1  0.42465500  0.63336000  0.37760000  1.0
  H  H148  1  0.45952000  0.49246000  0.53982000  1.0
  H  H149  1  0.69706000  0.44302000  0.37850000  1.0
  H  H150  1  0.07549000  0.10088000  0.88264000  1.0
  H  H151  1  0.89861000  0.98948000  0.04078000  1.0
  H  H152  1  0.78497000  0.92074000  0.85806000  1.0
  H  H153  1  0.71815000  0.00456000  0.61770000  1.0
  H  H154  1  0.04586000  0.06032000  0.49256000  1.0
  H  H155  1  0.94708000  0.82570000  0.53330000  1.0
  H  H156  1  0.70204000  0.13038000  0.36470000  1.0
  H  H157  1  0.40795000  0.28436000  0.28190000  1.0
  H  H158  1  0.58201500  0.09088000  0.18240000  1.0
  H  H159  1  0.38203000  0.62918000  0.12150000  1.0
  H  H160  1  0.54442000  0.82808000  0.21574000  1.0
  H  H161  1  0.27330000  0.66908000  0.30742000  1.0
  H  H162  1  0.71647000  0.61138000  0.78308000  1.0
  H  H163  1  0.38047000  0.75282000  0.72162000  1.0
  H  H164  1  0.59748000  0.60770000  0.59494000  1.0
  H  H165  1  0.52468000  0.06332000  0.67678000  1.0
  H  H166  1  0.36520000  0.26136000  0.77150000  1.0
  H  H167  1  0.43441000  0.04402000  0.86604000  1.0
  H  H168  1  0.05181000  0.92850000  0.16562000  1.0
  H  H169  1  0.92545000  0.73222000  0.27444000  1.0
  H  H170  1  0.08101000  0.94234000  0.35836000  1.0
  H  H171  1  0.84501000  0.36824000  0.31298000  1.0
  H  H172  1  0.12867000  0.20154000  0.24468000  1.0
  H  H173  1  0.79206000  0.28088000  0.13342000  1.0
  H  H174  1  0.64208000  0.36240000  0.67210000  1.0
  H  H175  1  0.01960000  0.24096000  0.71208000  1.0
  H  H176  1  0.70744000  0.27722000  0.84946000  1.0
  H  H177  1  0.16848000  0.60944000  0.70444000  1.0
  H  H178  1  0.88345000  0.78962000  0.75690000  1.0
  H  H179  1  0.11194000  0.65946000  0.89104000  1.0
  N  N180  1  0.43154000  0.05152000  0.06844000  1.0
  N  N181  1  0.47267000  0.94248000  0.12236000  1.0
  N  N182  1  0.01081000  0.40646000  0.92934000  1.0
  N  N183  1  0.99607000  0.53520000  0.91222000  1.0
  N  N184  1  0.01235000  0.64318000  0.05892000  1.0
  N  N185  1  0.20541000  0.57492000  0.04880000  1.0
  N  N186  1  0.38772000  0.85192000  0.91862000  1.0
  N  N187  1  0.20423000  0.92796000  0.93314000  1.0
  N  N188  1  0.52953000  0.90692000  0.44858000  1.0
  N  N189  1  0.62068000  0.02134000  0.42276000  1.0
  N  N190  1  0.97281000  0.60840000  0.51504000  1.0
  N  N191  1  0.83587000  0.58372000  0.43604000  1.0
  N  N192  1  0.00709000  0.38996000  0.46280000  1.0
  N  N193  1  0.19962000  0.45298000  0.48694000  1.0
  N  N194  1  0.40653000  0.11566000  0.53714000  1.0
  N  N195  1  0.22462000  0.06676000  0.58626000  1.0
  Nd  Nd196  1  0.34058000  0.17880000  0.04324000  1.0
  Nd  Nd197  1  0.09000000  0.27690000  0.95922000  1.0
  Nd  Nd198  1  0.84809000  0.74068000  0.03422000  1.0
  Nd  Nd199  1  0.56039000  0.75888000  0.94824000  1.0
  Nd  Nd200  1  0.37810000  0.79838000  0.45600000  1.0
  Nd  Nd201  1  0.09513000  0.72416000  0.52610000  1.0
  Nd  Nd202  1  0.87878000  0.27294000  0.47916000  1.0
  Nd  Nd203  1  0.56286000  0.22226000  0.53884000  1.0
  O  O204  1  0.01702000  0.27386000  0.06642000  1.0
  O  O205  1  0.18077000  0.20040000  0.12246000  1.0
  O  O206  1  0.50858000  0.20976000  0.11518000  1.0
  O  O207  1  0.30395000  0.19732000  0.14880000  1.0
  O  O208  1  0.16382000  0.15628000  0.97870000  1.0
  O  O209  1  0.16375000  0.07962000  0.04836000  1.0
  O  O210  1  0.40728000  0.16540000  0.93844000  1.0
  O  O211  1  0.24067000  0.23898000  0.88116000  1.0
  O  O212  1  0.09780000  0.25902000  0.85078000  1.0
  O  O213  1  0.91081000  0.23450000  0.89830000  1.0
  O  O214  1  0.27456000  0.30680000  0.02184000  1.0
  O  O215  1  0.27159000  0.36814000  0.94146000  1.0
  O  O216  1  0.46893000  0.75930000  0.04970000  1.0
  O  O217  1  0.67298000  0.74310000  0.11032000  1.0
  O  O218  1  0.80554000  0.75792000  0.14076000  1.0
  O  O219  1  0.98310000  0.81302000  0.10136000  1.0
  O  O220  1  0.68609000  0.65516000  0.98286000  1.0
  O  O221  1  0.70603000  0.64580000  0.07634000  1.0
  O  O222  1  0.94767000  0.74476000  0.93844000  1.0
  O  O223  1  0.75229000  0.76030000  0.87530000  1.0
  O  O224  1  0.63769000  0.75094000  0.84802000  1.0
  O  O225  1  0.44825000  0.69140000  0.86746000  1.0
  O  O226  1  0.70517000  0.83544000  0.00404000  1.0
  O  O227  1  0.60249000  0.89364000  0.93708000  1.0
  O  O228  1  0.99999000  0.76212000  0.42780000  1.0
  O  O229  1  0.20223000  0.81552000  0.38354000  1.0
  O  O230  1  0.32077000  0.81988000  0.35436000  1.0
  O  O231  1  0.51034000  0.76220000  0.37098000  1.0
  O  O232  1  0.21430000  0.83814000  0.52684000  1.0
  O  O233  1  0.23186000  0.91292000  0.45466000  1.0
  O  O234  1  0.46506000  0.75514000  0.55162000  1.0
  O  O235  1  0.27153000  0.69580000  0.59860000  1.0
  O  O236  1  0.15720000  0.70410000  0.62648000  1.0
  O  O237  1  0.95621000  0.74628000  0.61642000  1.0
  O  O238  1  0.26111000  0.68418000  0.45852000  1.0
  O  O239  1  0.23937000  0.61102000  0.53400000  1.0
  O  O240  1  0.49889000  0.25150000  0.43708000  1.0
  O  O241  1  0.71839000  0.27158000  0.39486000  1.0
  O  O242  1  0.83701000  0.25638000  0.37802000  1.0
  O  O243  1  0.04524000  0.23914000  0.40036000  1.0
  O  O244  1  0.69048000  0.33644000  0.52414000  1.0
  O  O245  1  0.81522000  0.40400000  0.46738000  1.0
  O  O246  1  0.95323000  0.27570000  0.58116000  1.0
  O  O247  1  0.73221000  0.31140000  0.57742000  1.0
  O  O248  1  0.61434000  0.18678000  0.63648000  1.0
  O  O249  1  0.42743000  0.25258000  0.62554000  1.0
  O  O250  1  0.76152000  0.15854000  0.49976000  1.0
  O  O251  1  0.71122000  0.14050000  0.59288000  1.0
  O  O252  1  0.85329000  0.48180000  0.01338000  1.0
  O  O253  1  0.82930000  0.33335667  0.00810000  1.0
  O  O254  1  0.92068000  0.40406000  0.10552000  1.0
  O  O255  1  0.58407000  0.58704000  0.25400000  1.0
  O  O256  1  0.80262000  0.53884000  0.30510000  1.0
  O  O257  1  0.70650000  0.67018000  0.33292000  1.0
  O  O258  1  0.81794000  0.07598000  0.76092000  1.0
  O  O259  1  0.93834000  0.94410000  0.75238000  1.0
  O  O260  1  0.07758000  0.06736000  0.76786000  1.0
  O  O261  1  0.56120000  0.88038000  0.60308000  1.0
  O  O262  1  0.73648000  0.81058000  0.66946000  1.0
  O  O263  1  0.71261000  0.77356000  0.55744000  1.0
  O  O264  1  0.87947000  0.04605000  0.31516000  1.0
  O  O265  1  0.82298000  0.02688000  0.20262000  1.0
  O  O266  1  0.69700000  0.94656000  0.28370000  1.0
  O  O267  1  0.10603500  0.53856000  0.22014000  1.0
  O  O268  1  0.31116000  0.51362000  0.28826000  1.0
  O  O269  1  0.33410000  0.49056000  0.17516000  1.0
  O  O270  1  0.93262000  0.56810000  0.65300000  1.0
  O  O271  1  0.74238000  0.47648000  0.62178000  1.0
  O  O272  1  0.82180000  0.48320000  0.73270000  1.0
  O  O273  1  0.65079000  0.94096000  0.72242000  1.0
  O  O274  1  0.39842000  0.90334000  0.72992000  1.0
  O  O275  1  0.54921000  0.90950000  0.82454000  1.0
  O  O276  1  0.33225000  0.99754000  0.24858000  1.0
  O  O277  1  0.16560000  0.07616000  0.31344000  1.0
  O  O278  1  0.13425500  0.07046000  0.19804000  1.0
  O  O279  1  0.58820000  0.38820000  0.28724000  1.0
  O  O280  1  0.54717000  0.35696000  0.17672000  1.0
  O  O281  1  0.70939000  0.46724000  0.20690000  1.0
  O  O282  1  0.42571000  0.39544000  0.74062000  1.0
  O  O283  1  0.59517000  0.46981000  0.80762000  1.0
  O  O284  1  0.47399000  0.35102000  0.84966000  1.0
  O  O285  1  0.36612000  0.54690000  0.76324000  1.0
  O  O286  1  0.16712000  0.46942000  0.80666000  1.0
  O  O287  1  0.31590000  0.55316000  0.87650000  1.0
  S  S288  1  0.82072000  0.40678000  0.05026000  1.0
  S  S289  1  0.66649500  0.58514000  0.31478000  1.0
  S  S290  1  0.94026000  0.02560000  0.78442000  1.0
  S  S291  1  0.70607000  0.84208000  0.60414000  1.0
  S  S292  1  0.76288000  0.02744000  0.26878000  1.0
  S  S293  1  0.26524000  0.54382000  0.22428000  1.0
  S  S294  1  0.79447000  0.53156000  0.67356000  1.0
  S  S295  1  0.51887000  0.94710000  0.76188000  1.0
  S  S296  1  0.17983000  0.02340000  0.25550000  1.0
  S  S297  1  0.65693000  0.38466000  0.22318000  1.0
  S  S298  1  0.53819000  0.38752000  0.79098000  1.0
  S  S299  1  0.25032000  0.54698000  0.81218000  1.0
