# generated using pymatgen
data_Ni4H79C122S4N3O20
_symmetry_space_group_name_H-M   'P 1'
_cell_length_a   8.94483333
_cell_length_b   52.02900000
_cell_length_c   52.04800000
_cell_angle_alpha   104.19800000
_cell_angle_beta   90.72400000
_cell_angle_gamma   90.05600000
_symmetry_Int_Tables_number   1
_chemical_formula_structural   Ni4H79C122S4N3O20
_chemical_formula_sum   'Ni8 H158 C244 S8 N6 O40'
_cell_volume   23480.66709850
_cell_formula_units_Z   2
loop_
 _symmetry_equiv_pos_site_id
 _symmetry_equiv_pos_as_xyz
  1  'x, y, z'
loop_
 _atom_site_type_symbol
 _atom_site_label
 _atom_site_symmetry_multiplicity
 _atom_site_fract_x
 _atom_site_fract_y
 _atom_site_fract_z
 _atom_site_occupancy
  C  C0  1  0.01343000  0.03440000  0.04469333  1.0
  C  C1  1  0.01760000  0.05504333  0.03148667  1.0
  C  C2  1  0.03748000  0.00772667  0.08118667  1.0
  C  C3  1  0.05859000  0.98941667  0.05680667  1.0
  C  C4  1  0.04708000  0.08315333  0.99634667  1.0
  C  C5  1  0.05910000  0.10090333  0.02132667  1.0
  C  C6  1  0.11126000  0.99735333  0.15899667  1.0
  C  C7  1  0.20989000  0.98644667  0.13842333  1.0
  C  C8  1  0.96245000  0.01483333  0.12801333  1.0
  C  C9  1  0.05886000  0.00308667  0.10752667  1.0
  C  C10  1  0.18361000  0.98917000  0.11294667  1.0
  C  C11  1  0.98813000  0.01198000  0.15363000  1.0
  C  C12  1  0.12498000  0.90738667  0.04264000  1.0
  C  C13  1  0.02362000  0.91965333  0.06188000  1.0
  C  C14  1  0.00172000  0.94664333  0.06667333  1.0
  C  C15  1  0.08410000  0.96133667  0.05265667  1.0
  C  C16  1  0.18435000  0.94883000  0.03312000  1.0
  C  C17  1  0.20401000  0.92179000  0.02798333  1.0
  C  C18  1  0.09242000  0.09924000  0.92064000  1.0
  C  C19  1  0.17582000  0.11381333  0.94218667  1.0
  C  C20  1  0.16195000  0.10864333  0.96689333  1.0
  C  C21  1  0.05970000  0.08954333  0.97060000  1.0
  C  C22  1  0.97415000  0.07528667  0.94904000  1.0
  C  C23  1  0.99098000  0.07999333  0.92409000  1.0
  C  C24  1  0.13186000  0.18345667  0.03862333  1.0
  C  C25  1  0.21901000  0.16723333  0.05085000  1.0
  C  C26  1  0.19333000  0.14038333  0.04526000  1.0
  C  C27  1  0.08332000  0.12903333  0.02684000  1.0
  C  C28  1  0.99383000  0.14462667  0.01487000  1.0
  C  C29  1  0.01696000  0.17164667  0.02080667  1.0
  C  C30  1  0.92296000  0.54049667  0.55109667  1.0
  C  C31  1  0.92332000  0.55222667  0.52949333  1.0
  C  C32  1  0.93586000  0.53384000  0.59869333  1.0
  C  C33  1  0.95444000  0.50831667  0.58240000  1.0
  C  C34  1  0.94102000  0.56028667  0.48245333  1.0
  C  C35  1  0.95115000  0.58565667  0.49961000  1.0
  C  C36  1  0.91429000  0.55529667  0.68141667  1.0
  C  C37  1  0.02781000  0.53821667  0.66921000  1.0
  C  C38  1  0.82376000  0.55935333  0.63918333  1.0
  C  C39  1  0.93201000  0.54127667  0.62704667  1.0
  C  C40  1  0.03838000  0.53165667  0.64199000  1.0
  C  C41  1  0.81716000  0.56681667  0.66628667  1.0
  C  C42  1  0.95726000  0.43306333  0.60075333  1.0
  C  C43  1  0.87255000  0.45372667  0.61602333  1.0
  C  C44  1  0.87468000  0.47864667  0.61075333  1.0
  C  C45  1  0.96550000  0.48344667  0.59071333  1.0
  C  C46  1  0.05635000  0.46316667  0.57643333  1.0
  C  C47  1  0.05136000  0.43807333  0.58122667  1.0
  C  C48  1  0.93644000  0.54282333  0.39963333  1.0
  C  C49  1  0.03503000  0.56213667  0.41377333  1.0
  C  C50  1  0.04107000  0.56733000  0.44099333  1.0
  C  C51  1  0.94497000  0.55379333  0.45399000  1.0
  C  C52  1  0.85323000  0.53328667  0.43967667  1.0
  C  C53  1  0.84981000  0.52765667  0.41245667  1.0
  C  C54  1  0.93716000  0.66271333  0.48616000  1.0
  C  C55  1  0.04159000  0.65681333  0.50405333  1.0
  C  C56  1  0.05145000  0.63112667  0.50725667  1.0
  C  C57  1  0.95765000  0.61115667  0.49257000  1.0
  C  C58  1  0.85866000  0.61681000  0.47371333  1.0
  C  C59  1  0.84914000  0.64247667  0.47043667  1.0
  C  C60  1  0.72750000  0.47027000  0.09762333  1.0
  C  C61  1  0.45615000  0.41989333  0.06353000  1.0
  C  C62  1  0.51515000  0.51369667  0.07098333  1.0
  C  C63  1  0.31895000  0.48836667  0.11706000  1.0
  C  C64  1  0.60232000  0.52343667  0.16529333  1.0
  C  C65  1  0.33060000  0.94691667  0.45709667  1.0
  C  C66  1  0.60032000  0.89948333  0.47908000  1.0
  C  C67  1  0.54859000  0.00135667  0.49617333  1.0
  C  C68  1  0.74163000  0.95741667  0.44087000  1.0
  C  C69  1  0.47977000  0.98083333  0.39371000  1.0
  C  C70  1  0.32236000  0.60565333  0.96172333  1.0
  C  C71  1  0.60151000  0.56918333  0.91404000  1.0
  C  C72  1  0.52775000  0.57666667  0.00647333  1.0
  C  C73  1  0.73302000  0.62321333  0.98152667  1.0
  C  C74  1  0.45823000  0.67164000  0.01687333  1.0
  C  C75  1  0.73781000  0.14213333  0.65055333  1.0
  C  C76  1  0.46162000  0.11540667  0.69140000  1.0
  C  C77  1  0.54130000  0.09638667  0.59101667  1.0
  C  C78  1  0.33311000  0.15545000  0.63527667  1.0
  C  C79  1  0.60727000  0.19761667  0.60958333  1.0
  C  C80  1  0.13049000  0.10160333  0.89419667  1.0
  C  C81  1  0.26860000  0.09213333  0.88412667  1.0
  C  C82  1  0.03884000  0.11525667  0.88026333  1.0
  C  C83  1  0.08757000  0.11998000  0.85646667  1.0
  C  C84  1  0.31915000  0.09681000  0.86041667  1.0
  C  C85  1  0.47162000  0.08728667  0.85117000  1.0
  C  C86  1  0.22836000  0.11118000  0.84648000  1.0
  C  C87  1  0.27585000  0.11659333  0.82179000  1.0
  C  C88  1  0.31168000  0.11929000  0.80026000  1.0
  C  C89  1  0.36418000  0.12004667  0.77410667  1.0
  C  C90  1  0.30993000  0.13911333  0.76167000  1.0
  C  C91  1  0.46335000  0.10066667  0.76032667  1.0
  C  C92  1  0.53989000  0.08258333  0.77472000  1.0
  C  C93  1  0.49360000  0.09879000  0.73331000  1.0
  C  C94  1  0.34442000  0.13769333  0.73513000  1.0
  C  C95  1  0.42989000  0.11659667  0.72002000  1.0
  C  C96  1  0.16487000  0.21209333  0.04354333  1.0
  C  C97  1  0.25771000  0.22494000  0.06490667  1.0
  C  C98  1  0.10935000  0.22674667  0.02618000  1.0
  C  C99  1  0.14592000  0.25304000  0.02984667  1.0
  C  C100  1  0.30133000  0.25112667  0.06785333  1.0
  C  C101  1  0.40956000  0.26377667  0.08959000  1.0
  C  C102  1  0.24242000  0.26502667  0.05023333  1.0
  C  C103  1  0.28051000  0.29157333  0.05206667  1.0
  C  C104  1  0.31110000  0.31359333  0.05181000  1.0
  C  C105  1  0.35726000  0.33958667  0.05255667  1.0
  C  C106  1  0.26605000  0.35524667  0.04077000  1.0
  C  C107  1  0.49066000  0.34944333  0.06570333  1.0
  C  C108  1  0.58984000  0.33244333  0.07825333  1.0
  C  C109  1  0.52567000  0.37600667  0.06841000  1.0
  C  C110  1  0.30561000  0.38131000  0.04246667  1.0
  C  C111  1  0.43405000  0.39172000  0.05650000  1.0
  C  C112  1  0.13845000  0.99274667  0.18563000  1.0
  C  C113  1  0.19198000  0.96811667  0.18767000  1.0
  C  C114  1  0.11967000  0.01277000  0.20880333  1.0
  C  C115  1  0.15967000  0.00842333  0.23346333  1.0
  C  C116  1  0.23712000  0.96377000  0.21211667  1.0
  C  C117  1  0.30383000  0.93748667  0.21235333  1.0
  C  C118  1  0.22047000  0.98416333  0.23553333  1.0
  C  C119  1  0.26467000  0.98114000  0.26180333  1.0
  C  C120  1  0.30117000  0.98049667  0.28427667  1.0
  C  C121  1  0.34697000  0.97937667  0.31123667  1.0
  C  C122  1  0.28502000  0.99696667  0.33317333  1.0
  C  C123  1  0.45523000  0.96121667  0.31572000  1.0
  C  C124  1  0.52141000  0.94184000  0.29205000  1.0
  C  C125  1  0.49816000  0.96113000  0.34234000  1.0
  C  C126  1  0.33170000  0.99749333  0.35921000  1.0
  C  C127  1  0.44025000  0.98012333  0.36470333  1.0
  C  C128  1  0.16290000  0.88017667  0.04025000  1.0
  C  C129  1  0.23914000  0.87367000  0.06124333  1.0
  C  C130  1  0.13181000  0.86123667  0.01683333  1.0
  C  C131  1  0.17579000  0.83536000  0.01453333  1.0
  C  C132  1  0.28573000  0.84783667  0.05899000  1.0
  C  C133  1  0.37415000  0.84120667  0.08113667  1.0
  C  C134  1  0.25300000  0.82876333  0.03541333  1.0
  C  C135  1  0.29906000  0.80234000  0.03206667  1.0
  C  C136  1  0.33404000  0.77994667  0.02939333  1.0
  C  C137  1  0.37594000  0.75344333  0.02733333  1.0
  C  C138  1  0.38619000  0.73695667  0.00221667  1.0
  C  C139  1  0.39980000  0.74387333  0.05007333  1.0
  C  C140  1  0.39600000  0.76231667  0.07714000  1.0
  C  C141  1  0.43039000  0.71692000  0.04715000  1.0
  C  C142  1  0.41589000  0.71056000  0.99945333  1.0
  C  C143  1  0.43445000  0.70010667  0.02184667  1.0
  C  C144  1  0.88482000  0.55848667  0.70931000  1.0
  C  C145  1  0.00259000  0.55891333  0.72727333  1.0
  C  C146  1  0.73649000  0.55885333  0.71759333  1.0
  C  C147  1  0.70592000  0.55939667  0.74345333  1.0
  C  C148  1  0.97253000  0.55882667  0.75335333  1.0
  C  C149  1  0.09944000  0.55780333  0.77216333  1.0
  C  C150  1  0.82264000  0.55878667  0.76102667  1.0
  C  C151  1  0.78325000  0.55764667  0.78668000  1.0
  C  C152  1  0.74255000  0.55762333  0.80815000  1.0
  C  C153  1  0.70977000  0.55873000  0.83468333  1.0
  C  C154  1  0.56769000  0.55137000  0.84100333  1.0
  C  C155  1  0.81841000  0.56830333  0.85431000  1.0
  C  C156  1  0.97146000  0.57640000  0.84756333  1.0
  C  C157  1  0.78293000  0.57001000  0.88050000  1.0
  C  C158  1  0.53365000  0.55305000  0.86724333  1.0
  C  C159  1  0.64247000  0.56194333  0.88681000  1.0
  C  C160  1  0.93122000  0.40576000  0.60286000  1.0
  C  C161  1  0.88179000  0.38672333  0.58056667  1.0
  C  C162  1  0.94078000  0.39927000  0.62730667  1.0
  C  C163  1  0.89774000  0.37412667  0.62958667  1.0
  C  C164  1  0.83688000  0.36149333  0.58262000  1.0
  C  C165  1  0.77624000  0.34245667  0.55835333  1.0
  C  C166  1  0.84233000  0.35516333  0.60755333  1.0
  C  C167  1  0.79080000  0.32963000  0.61103667  1.0
  C  C168  1  0.75090000  0.30791667  0.61318000  1.0
  C  C169  1  0.70495000  0.28068333  0.61232333  1.0
  C  C170  1  0.67011000  0.27305667  0.63553000  1.0
  C  C171  1  0.69938000  0.26134333  0.58806333  1.0
  C  C172  1  0.73031000  0.26900667  0.56275667  1.0
  C  C173  1  0.66298000  0.23472667  0.58730333  1.0
  C  C174  1  0.63574000  0.24637667  0.63465333  1.0
  C  C175  1  0.63443000  0.22655000  0.61040000  1.0
  C  C176  1  0.90391000  0.54181333  0.37234667  1.0
  C  C177  1  0.86103000  0.56521333  0.36585667  1.0
  C  C178  1  0.90117000  0.51763333  0.35351000  1.0
  C  C179  1  0.85688000  0.51693000  0.32785000  1.0
  C  C180  1  0.81696000  0.56472333  0.34022000  1.0
  C  C181  1  0.76826000  0.58987667  0.33345000  1.0
  C  C182  1  0.81490000  0.54037667  0.32138000  1.0
  C  C183  1  0.77080000  0.53943333  0.29525667  1.0
  C  C184  1  0.73637000  0.53951000  0.27333667  1.0
  C  C185  1  0.69289000  0.53722333  0.24690333  1.0
  C  C186  1  0.65133000  0.51220333  0.23248333  1.0
  C  C187  1  0.69820000  0.55886000  0.23526333  1.0
  C  C188  1  0.73948000  0.58600667  0.25128000  1.0
  C  C189  1  0.66318000  0.55474333  0.20834000  1.0
  C  C190  1  0.61783000  0.50824333  0.20601667  1.0
  C  C191  1  0.62640000  0.52938000  0.19365667  1.0
  C  C192  1  0.90930000  0.69025333  0.48545667  1.0
  C  C193  1  0.01118000  0.70399667  0.47378000  1.0
  C  C194  1  0.77658000  0.70242667  0.49567667  1.0
  C  C195  1  0.74351000  0.72802000  0.49362000  1.0
  C  C196  1  0.97841000  0.72967000  0.47126667  1.0
  C  C197  1  0.08826000  0.74339000  0.45771000  1.0
  C  C198  1  0.84215000  0.74181000  0.48105000  1.0
  C  C199  1  0.79974000  0.76798000  0.47803000  1.0
  C  C200  1  0.75912000  0.78983667  0.47648000  1.0
  C  C201  1  0.70885000  0.81621333  0.47498667  1.0
  C  C202  1  0.61487000  0.83049667  0.49464000  1.0
  C  C203  1  0.75457000  0.82807000  0.45479000  1.0
  C  C204  1  0.85278000  0.81285667  0.43295000  1.0
  C  C205  1  0.71448000  0.85480667  0.45616000  1.0
  C  C206  1  0.57873000  0.85721667  0.49620667  1.0
  C  C207  1  0.63377000  0.87042667  0.47777333  1.0
  C  C208  1  0.88013000  0.48510000  0.10149000  1.0
  C  C209  1  0.02654000  0.47512000  0.10746000  1.0
  C  C210  1  0.16604000  0.48796333  0.10277667  1.0
  C  C211  1  0.01306000  0.51996000  0.08704000  1.0
  C  C212  1  0.15087000  0.50928000  0.09105000  1.0
  C  C213  1  0.88220000  0.50845000  0.09307000  1.0
  C  C214  1  0.17945000  0.93834000  0.44201667  1.0
  C  C215  1  0.04083000  0.95363667  0.44542000  1.0
  C  C216  1  0.89215000  0.94164667  0.43945667  1.0
  C  C217  1  0.02137000  0.89881000  0.42508333  1.0
  C  C218  1  0.88935000  0.91402667  0.42890333  1.0
  C  C219  1  0.16210000  0.91089333  0.43164000  1.0
  C  C220  1  0.88631000  0.60910333  0.97964333  1.0
  C  C221  1  0.02739000  0.61689000  0.96953333  1.0
  C  C222  1  0.17158000  0.60653333  0.97609333  1.0
  C  C223  1  0.03457000  0.58172000  0.00236667  1.0
  C  C224  1  0.16575000  0.58884000  0.99218333  1.0
  C  C225  1  0.89894000  0.59198667  0.99636667  1.0
  C  C226  1  0.89126000  0.14301000  0.63756000  1.0
  C  C227  1  0.03773000  0.15345333  0.64875000  1.0
  C  C228  1  0.17736000  0.14260000  0.63564000  1.0
  C  C229  1  0.02352000  0.11370667  0.60202000  1.0
  C  C230  1  0.16123000  0.12111667  0.61409000  1.0
  C  C231  1  0.89360000  0.12524667  0.61321667  1.0
  C  C232  1  0.57609000  0.52694667  0.05099333  1.0
  C  C233  1  0.51759000  0.54936000  0.04289333  1.0
  C  C234  1  0.57925000  0.55601000  0.02011000  1.0
  C  C235  1  0.75391000  0.51929000  0.01507333  1.0
  C  C236  1  0.69272000  0.53993000  0.00632333  1.0
  C  C237  1  0.69643000  0.51305000  0.03716667  1.0
  C  C238  1  0.50517000  0.02632000  0.52255333  1.0
  C  C239  1  0.57873000  0.05116667  0.54149000  1.0
  C  C240  1  0.50297000  0.06930000  0.56616667  1.0
  C  C241  1  0.28805000  0.03884667  0.55187000  1.0
  C  C242  1  0.36069000  0.05996333  0.56963333  1.0
  C  C243  1  0.35837000  0.02293000  0.52968333  1.0
  H  H244  1  0.30913000  0.97600333  0.14206000  1.0
  H  H245  1  0.86718000  0.02616000  0.12409667  1.0
  H  H246  1  0.26300000  0.98096333  0.09765000  1.0
  H  H247  1  0.91074000  0.02091333  0.16899667  1.0
  H  H248  1  0.96341000  0.90836667  0.07332667  1.0
  H  H249  1  0.92069000  0.95597333  0.08118667  1.0
  H  H250  1  0.24889000  0.95995667  0.02208000  1.0
  H  H251  1  0.28450000  0.91228333  0.01336667  1.0
  H  H252  1  0.25637000  0.12845000  0.93960333  1.0
  H  H253  1  0.23495000  0.11901333  0.98273000  1.0
  H  H254  1  0.89664000  0.06009000  0.95138667  1.0
  H  H255  1  0.92925000  0.06798000  0.90744000  1.0
  H  H256  1  0.31019000  0.17450000  0.06433000  1.0
  H  H257  1  0.26173000  0.12842333  0.05506000  1.0
  H  H258  1  0.90610000  0.13588667  0.00098000  1.0
  H  H259  1  0.94304000  0.18272000  0.01116333  1.0
  H  H260  1  0.10414000  0.52900000  0.68044333  1.0
  H  H261  1  0.74209000  0.56733333  0.62775667  1.0
  H  H262  1  0.12647000  0.51861667  0.63260000  1.0
  H  H263  1  0.73148000  0.58064333  0.67529333  1.0
  H  H264  1  0.79742000  0.45016000  0.63088333  1.0
  H  H265  1  0.79949000  0.49364000  0.62140667  1.0
  H  H266  1  0.12740000  0.46651667  0.56089333  1.0
  H  H267  1  0.11755000  0.42242000  0.56915333  1.0
  H  H268  1  0.10165000  0.57398667  0.40380000  1.0
  H  H269  1  0.11708000  0.58238000  0.45181333  1.0
  H  H270  1  0.77964000  0.52229333  0.44945333  1.0
  H  H271  1  0.77230000  0.51280333  0.40162667  1.0
  H  H272  1  0.11049000  0.67220000  0.51636000  1.0
  H  H273  1  0.12852000  0.62700000  0.52191667  1.0
  H  H274  1  0.78397000  0.60174667  0.46243667  1.0
  H  H275  1  0.76943000  0.64676667  0.45630333  1.0
  H  H276  1  0.33818000  0.08153000  0.89526000  1.0
  H  H277  1  0.93209000  0.12283000  0.88819333  1.0
  H  H278  1  0.01603000  0.13086667  0.84606333  1.0
  H  H279  1  0.52169000  0.07522667  0.86394667  1.0
  H  H280  1  0.46398000  0.07468667  0.83074667  1.0
  H  H281  1  0.54513000  0.10462333  0.85208667  1.0
  H  H282  1  0.23944000  0.15493667  0.77247667  1.0
  H  H283  1  0.60936000  0.09464000  0.79116667  1.0
  H  H284  1  0.45498000  0.07153333  0.78309000  1.0
  H  H285  1  0.61268000  0.06822000  0.76139000  1.0
  H  H286  1  0.57016000  0.08393667  0.72292000  1.0
  H  H287  1  0.30127000  0.15302667  0.72636667  1.0
  H  H288  1  0.29813000  0.21504000  0.07949667  1.0
  H  H289  1  0.03982000  0.21836333  0.00923000  1.0
  H  H290  1  0.10094000  0.26393000  0.01629000  1.0
  H  H291  1  0.45109000  0.24930000  0.10048000  1.0
  H  H292  1  0.50749000  0.27151667  0.08098000  1.0
  H  H293  1  0.35347000  0.28017000  0.10377667  1.0
  H  H294  1  0.16228000  0.34753667  0.03098333  1.0
  H  H295  1  0.54073000  0.33059333  0.09717667  1.0
  H  H296  1  0.60116000  0.31240667  0.06481000  1.0
  H  H297  1  0.70367000  0.34104333  0.08206333  1.0
  H  H298  1  0.62216000  0.38455000  0.08026000  1.0
  H  H299  1  0.23106000  0.39381667  0.03450000  1.0
  H  H300  1  0.20074000  0.95223333  0.16987667  1.0
  H  H301  1  0.07764000  0.03198000  0.20780333  1.0
  H  H302  1  0.14534000  0.02432333  0.25099000  1.0
  H  H303  1  0.31775000  0.92505333  0.19186333  1.0
  H  H304  1  0.41595000  0.94053667  0.22185000  1.0
  H  H305  1  0.22907000  0.92686000  0.22304000  1.0
  H  H306  1  0.19935000  0.01049667  0.33006667  1.0
  H  H307  1  0.43572000  0.92699333  0.28240333  1.0
  H  H308  1  0.55801000  0.95243333  0.27704333  1.0
  H  H309  1  0.61999000  0.93143000  0.29756667  1.0
  H  H310  1  0.57795000  0.94644333  0.34529667  1.0
  H  H311  1  0.27823000  0.01116000  0.37533000  1.0
  H  H312  1  0.26521000  0.88893333  0.07900333  1.0
  H  H313  1  0.07445000  0.86653333  0.00047667  1.0
  H  H314  1  0.15126000  0.82056000  0.99640000  1.0
  H  H315  1  0.38357000  0.85852667  0.09843667  1.0
  H  H316  1  0.31821000  0.82490000  0.08758333  1.0
  H  H317  1  0.48815000  0.83510000  0.07410667  1.0
  H  H318  1  0.36856000  0.74436667  0.98471000  1.0
  H  H319  1  0.49478000  0.77565000  0.07976333  1.0
  H  H320  1  0.29254000  0.77434000  0.07928333  1.0
  H  H321  1  0.39735000  0.75119000  0.09273333  1.0
  H  H322  1  0.45001000  0.70914000  0.06432333  1.0
  H  H323  1  0.42203000  0.69837333  0.97943333  1.0
  H  H324  1  0.11727000  0.55880333  0.72086667  1.0
  H  H325  1  0.64329000  0.55777333  0.70397333  1.0
  H  H326  1  0.59067000  0.55955000  0.74955333  1.0
  H  H327  1  0.20899000  0.55950000  0.76293333  1.0
  H  H328  1  0.09002000  0.57446333  0.78995333  1.0
  H  H329  1  0.09576000  0.53867000  0.77790000  1.0
  H  H330  1  0.48266000  0.54508333  0.82577000  1.0
  H  H331  1  0.03470000  0.55837000  0.83795333  1.0
  H  H332  1  0.96263000  0.58967333  0.83389333  1.0
  H  H333  1  0.03341000  0.58727000  0.86551333  1.0
  H  H334  1  0.86275000  0.57852000  0.89609667  1.0
  H  H335  1  0.42113000  0.54878000  0.87234667  1.0
  H  H336  1  0.87274000  0.39198667  0.56170000  1.0
  H  H337  1  0.97997000  0.41383667  0.64464667  1.0
  H  H338  1  0.90538000  0.36969333  0.64876333  1.0
  H  H339  1  0.79574000  0.34975667  0.54033667  1.0
  H  H340  1  0.83316000  0.32316333  0.55566000  1.0
  H  H341  1  0.65429000  0.34018333  0.56049667  1.0
  H  H342  1  0.67134000  0.28774333  0.65435667  1.0
  H  H343  1  0.63791000  0.28167000  0.55861333  1.0
  H  H344  1  0.83733000  0.28010333  0.56466667  1.0
  H  H345  1  0.74007000  0.25129333  0.54604667  1.0
  H  H346  1  0.65939000  0.22019333  0.56857000  1.0
  H  H347  1  0.61093000  0.24147000  0.65316667  1.0
  H  H348  1  0.85829000  0.58369333  0.38097000  1.0
  H  H349  1  0.93183000  0.49947333  0.35878333  1.0
  H  H350  1  0.85453000  0.49817667  0.31318333  1.0
  H  H351  1  0.78718000  0.60731000  0.35033000  1.0
  H  H352  1  0.83316000  0.59280333  0.31640000  1.0
  H  H353  1  0.64742000  0.58846333  0.32829000  1.0
  H  H354  1  0.64787000  0.49559000  0.24162000  1.0
  H  H355  1  0.64835000  0.59359000  0.26531667  1.0
  H  H356  1  0.84486000  0.58512000  0.26246333  1.0
  H  H357  1  0.75664000  0.59977000  0.23836333  1.0
  H  H358  1  0.66790000  0.57094667  0.19877000  1.0
  H  H359  1  0.58769000  0.48834333  0.19528000  1.0
  H  H360  1  0.11420000  0.69434667  0.46604000  1.0
  H  H361  1  0.69825000  0.69192667  0.50510333  1.0
  H  H362  1  0.63948000  0.73685667  0.50156667  1.0
  H  H363  1  0.18647000  0.73062333  0.45085667  1.0
  H  H364  1  0.03371000  0.74804000  0.44018667  1.0
  H  H365  1  0.12816000  0.76178000  0.47173333  1.0
  H  H366  1  0.57042000  0.82083333  0.50911333  1.0
  H  H367  1  0.96896000  0.81273667  0.44061333  1.0
  H  H368  1  0.81400000  0.79198667  0.42589333  1.0
  H  H369  1  0.85149000  0.82153667  0.41559333  1.0
  H  H370  1  0.74796000  0.86349667  0.44039333  1.0
  H  H371  1  0.50463000  0.86728000  0.51154667  1.0
  H  H372  1  0.90406000  0.55041333  0.07466667  1.0
  H  H373  1  0.10351000  0.55111667  0.07340000  1.0
  H  H374  1  0.24811000  0.52010000  0.08779333  1.0
  H  H375  1  0.78032000  0.51743000  0.08960667  1.0
  H  H376  1  0.03143000  0.45821000  0.11601000  1.0
  H  H377  1  0.10776000  0.86021000  0.41431667  1.0
  H  H378  1  0.91246000  0.86273667  0.40867667  1.0
  H  H379  1  0.78378000  0.90402000  0.42294333  1.0
  H  H380  1  0.25963000  0.89823333  0.42980000  1.0
  H  H381  1  0.04807000  0.97475333  0.45322000  1.0
  H  H382  1  0.94526000  0.56084667  0.02806000  1.0
  H  H383  1  0.14001000  0.55610000  0.02208000  1.0
  H  H384  1  0.26401000  0.57893000  0.99602000  1.0
  H  H385  1  0.80267000  0.58781000  0.00650000  1.0
  H  H386  1  0.02520000  0.63073000  0.95711000  1.0
  H  H387  1  0.91222000  0.08890000  0.57016000  1.0
  H  H388  1  0.11175000  0.08877333  0.56848333  1.0
  H  H389  1  0.25989000  0.11206667  0.60446333  1.0
  H  H390  1  0.79062000  0.11844333  0.60343000  1.0
  H  H391  1  0.04260000  0.16947333  0.66658222  1.0
  H  H392  1  0.91696000  0.48988000  0.00873000  1.0
  H  H393  1  0.91424000  0.51018000  0.98552000  1.0
  H  H394  1  0.73799000  0.54372000  0.98842000  1.0
  H  H395  1  0.74380000  0.49620000  0.04305667  1.0
  H  H396  1  0.42293000  0.56012667  0.05288333  1.0
  H  H397  1  0.08509000  0.01848000  0.54330000  1.0
  H  H398  1  0.08758000  0.04466333  0.57268667  1.0
  H  H399  1  0.29993000  0.06985000  0.58697333  1.0
  H  H400  1  0.29391000  0.00672000  0.51754667  1.0
  H  H401  1  0.69243000  0.05589667  0.53753000  1.0
  N  N402  1  0.00639000  0.54199000  0.07770000  1.0
  N  N403  1  0.01323000  0.87216000  0.41544000  1.0
  N  N404  1  0.03996000  0.56494000  0.01844000  1.0
  N  N405  1  0.01537000  0.09557667  0.57873667  1.0
  N  N406  1  0.86909000  0.50537000  0.00211000  1.0
  N  N407  1  0.14420000  0.03354667  0.55635333  1.0
  Ni  Ni408  1  0.55668000  0.51095667  0.12556000  1.0
  Ni  Ni409  1  0.48729000  0.45977667  0.07594000  1.0
  Ni  Ni410  1  0.51527000  0.97955333  0.43540000  1.0
  Ni  Ni411  1  0.56692000  0.94047667  0.47664000  1.0
  Ni  Ni412  1  0.49854000  0.63158000  0.00437000  1.0
  Ni  Ni413  1  0.55419000  0.58192333  0.95304333  1.0
  Ni  Ni414  1  0.56551000  0.15712333  0.61164000  1.0
  Ni  Ni415  1  0.50704000  0.11750667  0.65141000  1.0
  O  O416  1  0.69220000  0.45540667  0.07459000  1.0
  O  O417  1  0.45899000  0.43536667  0.04638667  1.0
  O  O418  1  0.47453000  0.43223000  0.08871667  1.0
  O  O419  1  0.49865000  0.48756000  0.06107333  1.0
  O  O420  1  0.58593000  0.47881333  0.10499000  1.0
  O  O421  1  0.35690000  0.51108667  0.13225000  1.0
  O  O422  1  0.58626000  0.54081000  0.15004333  1.0
  O  O423  1  0.58698000  0.49845333  0.15258667  1.0
  O  O424  1  0.52807000  0.52567667  0.09696667  1.0
  O  O425  1  0.45947000  0.48117667  0.10771333  1.0
  O  O426  1  0.36380000  0.93695667  0.47686333  1.0
  O  O427  1  0.59269000  0.92063333  0.50051333  1.0
  O  O428  1  0.58111000  0.90750667  0.45713333  1.0
  O  O429  1  0.55502000  0.97588667  0.49982333  1.0
  O  O430  1  0.47369000  0.95181333  0.44978000  1.0
  O  O431  1  0.72064000  0.97769000  0.43106333  1.0
  O  O432  1  0.49209000  0.00246333  0.41460667  1.0
  O  O433  1  0.49388000  0.95904667  0.40240333  1.0
  O  O434  1  0.53391000  0.00420333  0.47042667  1.0
  O  O435  1  0.59856000  0.95287000  0.44784333  1.0
  O  O436  1  0.35424000  0.58329333  0.94555000  1.0
  O  O437  1  0.57634000  0.55209333  0.92900000  1.0
  O  O438  1  0.59119000  0.59457333  0.92610667  1.0
  O  O439  1  0.51803000  0.56709333  0.98021333  1.0
  O  O440  1  0.46494000  0.61154000  0.97170333  1.0
  O  O441  1  0.69996000  0.63816667  0.00443667  1.0
  O  O442  1  0.47487000  0.65642667  0.03438000  1.0
  O  O443  1  0.46954000  0.65857000  0.99207000  1.0
  O  O444  1  0.52915000  0.60269333  0.01875667  1.0
  O  O445  1  0.59047000  0.61378667  0.97452667  1.0
  O  O446  1  0.70798000  0.12162667  0.65965667  1.0
  O  O447  1  0.48460000  0.09380333  0.67109000  1.0
  O  O448  1  0.47118000  0.13746667  0.68331000  1.0
  O  O449  1  0.53859000  0.09358000  0.61680667  1.0
  O  O450  1  0.59704000  0.14410333  0.64027000  1.0
  O  O451  1  0.36430000  0.16441333  0.61473333  1.0
  O  O452  1  0.58992000  0.17684000  0.58802667  1.0
  O  O453  1  0.59645000  0.18954333  0.63162000  1.0
  O  O454  1  0.53616000  0.12198667  0.58752333  1.0
  O  O455  1  0.47389000  0.14570333  0.63790333  1.0
  S  S456  1  0.00906000  0.03859667  0.07745667  1.0
  S  S457  1  0.04667000  0.00291667  0.03055667  1.0
  S  S458  1  0.02285000  0.05161333  0.99882333  1.0
  S  S459  1  0.04267000  0.08655333  0.04672000  1.0
  S  S460  1  0.91636000  0.55754000  0.58213667  1.0
  S  S461  1  0.94864000  0.50852000  0.54997333  1.0
  S  S462  1  0.92520000  0.53575667  0.49818000  1.0
  S  S463  1  0.94057000  0.58453667  0.53158333  1.0
