# generated using pymatgen
data_LaC12(NO)12
_symmetry_space_group_name_H-M   'P 1'
_cell_length_a   18.55766950
_cell_length_b   18.55795000
_cell_length_c   33.39580000
_cell_angle_alpha   90.00000000
_cell_angle_beta   90.00000000
_cell_angle_gamma   119.99950000
_symmetry_Int_Tables_number   1
_chemical_formula_structural   LaC12(NO)12
_chemical_formula_sum   'La6 C72 N72 O72'
_cell_volume   9960.43045306
_cell_formula_units_Z   6
loop_
 _symmetry_equiv_pos_site_id
 _symmetry_equiv_pos_as_xyz
  1  'x, y, z'
loop_
 _atom_site_type_symbol
 _atom_site_label
 _atom_site_symmetry_multiplicity
 _atom_site_fract_x
 _atom_site_fract_y
 _atom_site_fract_z
 _atom_site_occupancy
  C  C0  1  0.89692000  0.45722000  0.96152000  1.0
  C  C1  1  0.67758000  0.34344000  0.99260000  1.0
  C  C2  1  0.59236000  0.41480000  0.89976000  1.0
  C  C3  1  0.68300000  0.33278000  0.82797000  1.0
  C  C4  1  0.89626000  0.43802000  0.85997000  1.0
  C  C5  1  0.59434000  0.17532000  0.92027000  1.0
  C  C6  1  0.44294000  0.53998000  0.79616000  1.0
  C  C7  1  0.35610000  0.66860000  0.82648000  1.0
  C  C8  1  0.41106000  0.80834000  0.73576000  1.0
  C  C9  1  0.31072000  0.61826000  0.66272000  1.0
  C  C10  1  0.43462000  0.53106000  0.69568000  1.0
  C  C11  1  0.16478000  0.56026000  0.75282000  1.0
  C  C12  1  0.52934000  0.07442000  0.62721000  1.0
  C  C13  1  0.62966000  0.27848000  0.66047000  1.0
  C  C14  1  0.77002000  0.38734000  0.55026000  1.0
  C  C15  1  0.59692000  0.27072000  0.49176000  1.0
  C  C16  1  0.51076000  0.07216000  0.52765000  1.0
  C  C17  1  0.57376000  0.38458000  0.60086000  1.0
  C  C18  1  0.06390000  0.53296000  0.46096000  1.0
  C  C19  1  0.27690000  0.61382000  0.49339000  1.0
  C  C20  1  0.36632000  0.56286000  0.40358000  1.0
  C  C21  1  0.27942000  0.63912000  0.32862000  1.0
  C  C22  1  0.06610000  0.54826000  0.36025000  1.0
  C  C23  1  0.36794000  0.80548000  0.41976000  1.0
  C  C24  1  0.51768000  0.44978000  0.29470000  1.0
  C  C25  1  0.59232000  0.31098000  0.32313000  1.0
  C  C26  1  0.54562000  0.18522000  0.23072000  1.0
  C  C27  1  0.61764000  0.34106000  0.15944000  1.0
  C  C28  1  0.57132000  0.49938000  0.19490000  1.0
  C  C29  1  0.79600000  0.42778000  0.25410000  1.0
  C  C30  1  0.42224000  0.90854000  0.12854000  1.0
  C  C31  1  0.33094000  0.69452000  0.16129000  1.0
  C  C32  1  0.17450000  0.60136000  0.06390000  1.0
  C  C33  1  0.35284000  0.70156000  0.99534000  1.0
  C  C34  1  0.44692000  0.90848000  0.02816000  1.0
  C  C35  1  0.50512000  0.70268000  0.09505000  1.0
  C  C36  1  0.66758000  0.31908000  0.78443000  1.0
  C  C37  1  0.64414000  0.29356000  0.70398000  1.0
  C  C38  1  0.29880000  0.61734000  0.61881000  1.0
  C  C39  1  0.28926000  0.61478000  0.53726000  1.0
  C  C40  1  0.59146000  0.29524000  0.36669000  1.0
  C  C41  1  0.59542000  0.28302000  0.44798000  1.0
  C  C42  1  0.31832000  0.67752000  0.20472000  1.0
  C  C43  1  0.29562000  0.65138000  0.28513000  1.0
  C  C44  1  0.65790000  0.33778000  0.03581000  1.0
  C  C45  1  0.62950000  0.33568000  0.11597500  1.0
  C  C46  1  0.35580000  0.68128000  0.87017000  1.0
  C  C47  1  0.35350000  0.68968000  0.95160000  1.0
  C  C48  1  0.48502000  0.97618000  0.99934000  1.0
  C  C49  1  0.55478000  0.10040000  0.94489000  1.0
  C  C50  1  0.96376000  0.46814000  0.83091000  1.0
  C  C51  1  0.08862000  0.52428000  0.77665000  1.0
  C  C52  1  0.53414000  0.42574000  0.62025000  1.0
  C  C53  1  0.46852000  0.49434000  0.66876000  1.0
  C  C54  1  0.40674000  0.88074000  0.44409000  1.0
  C  C55  1  0.47404000  0.00442000  0.49885000  1.0
  C  C56  1  0.87192000  0.46452000  0.27813000  1.0
  C  C57  1  0.99836000  0.52004000  0.33145000  1.0
  C  C58  1  0.52728000  0.64844000  0.11705000  1.0
  C  C59  1  0.55750000  0.55256000  0.16758000  1.0
  C  C60  1  0.50896000  0.10830000  0.20748000  1.0
  C  C61  1  0.45140000  0.97808000  0.15632000  1.0
  C  C62  1  0.96664000  0.49432000  0.98952000  1.0
  C  C63  1  0.09672000  0.56148000  0.04110000  1.0
  C  C64  1  0.48114000  0.50870000  0.82409000  1.0
  C  C65  1  0.55246000  0.45128000  0.87612000  1.0
  C  C66  1  0.44634000  0.88375000  0.71135000  1.0
  C  C67  1  0.50058000  0.00746000  0.65652000  1.0
  C  C68  1  0.99152000  0.49764000  0.48696000  1.0
  C  C69  1  0.85250000  0.42926000  0.53237000  1.0
  C  C70  1  0.47958000  0.47846000  0.32398000  1.0
  C  C71  1  0.40772000  0.52942000  0.37900000  1.0
  La  La72  1  0.74932000  0.37402000  0.91075000  1.0
  La  La73  1  0.36496000  0.60916000  0.74526000  1.0
  La  La74  1  0.59048000  0.22104000  0.57652000  1.0
  La  La75  1  0.21202000  0.60542000  0.41125000  1.0
  La  La76  1  0.59528000  0.38186000  0.24293000  1.0
  La  La77  1  0.36490000  0.76150000  0.07846000  1.0
  N  N78  1  0.71964000  0.37792000  0.75794000  1.0
  N  N79  1  0.60370000  0.24708000  0.76992000  1.0
  N  N80  1  0.59166000  0.23512000  0.73048000  1.0
  N  N81  1  0.70866000  0.36516000  0.71847000  1.0
  N  N82  1  0.33564000  0.68926000  0.59740000  1.0
  N  N83  1  0.25768000  0.54408000  0.59859000  1.0
  N  N84  1  0.25280000  0.54284000  0.55865000  1.0
  N  N85  1  0.33004000  0.68804000  0.55749000  1.0
  N  N86  1  0.66182000  0.30844000  0.38562000  1.0
  N  N87  1  0.52318000  0.27628000  0.38927000  1.0
  N  N88  1  0.52506000  0.27018000  0.42911000  1.0
  N  N89  1  0.66338000  0.30134000  0.42535000  1.0
  N  N90  1  0.37246000  0.73464000  0.23121000  1.0
  N  N91  1  0.25252000  0.60684000  0.21920000  1.0
  N  N92  1  0.24188000  0.59378000  0.25866000  1.0
  N  N93  1  0.36082000  0.72238000  0.27063000  1.0
  N  N94  1  0.59710000  0.35150000  0.04981000  1.0
  N  N95  1  0.70398000  0.32276000  0.06265000  1.0
  N  N96  1  0.69074000  0.32266000  0.10197000  1.0
  N  N97  1  0.58268000  0.34962000  0.08911000  1.0
  N  N98  1  0.42736000  0.71190000  0.89171000  1.0
  N  N99  1  0.28300000  0.65432000  0.89018000  1.0
  N  N100  1  0.28206000  0.65962000  0.93004000  1.0
  N  N101  1  0.42626000  0.71614000  0.93162000  1.0
  N  N102  1  0.43794000  0.00210000  0.97987000  1.0
  N  N103  1  0.56726000  0.01232000  0.99072000  1.0
  N  N104  1  0.60174000  0.07398000  0.96418000  1.0
  N  N105  1  0.47232000  0.06342000  0.95319000  1.0
  N  N106  1  0.99910000  0.42174000  0.82144000  1.0
  N  N107  1  0.99066000  0.54226000  0.81229000  1.0
  N  N108  1  0.05224000  0.57002000  0.78568000  1.0
  N  N109  1  0.06106000  0.44976000  0.79505000  1.0
  N  N110  1  0.58214000  0.50406000  0.63452000  1.0
  N  N111  1  0.45240000  0.38248000  0.63025000  1.0
  N  N112  1  0.41996000  0.41644000  0.65408000  1.0
  N  N113  1  0.54970000  0.53809000  0.65812000  1.0
  N  N114  1  0.35880000  0.90644000  0.46300000  1.0
  N  N115  1  0.48902000  0.91826000  0.45289000  1.0
  N  N116  1  0.52222000  0.97940000  0.47972000  1.0
  N  N117  1  0.39206000  0.96784000  0.48968000  1.0
  N  N118  1  0.89828000  0.53772000  0.29768000  1.0
  N  N119  1  0.91030000  0.42004000  0.28552000  1.0
  N  N120  1  0.97252000  0.44742000  0.31166000  1.0
  N  N121  1  0.96106000  0.56546000  0.32368000  1.0
  N  N122  1  0.46750000  0.56898000  0.12482000  1.0
  N  N123  1  0.60294000  0.67914000  0.13481000  1.0
  N  N124  1  0.61806000  0.63170000  0.15947000  1.0
  N  N125  1  0.48246000  0.52184000  0.14950000  1.0
  N  N126  1  0.43480000  0.08022000  0.18859000  1.0
  N  N127  1  0.55350000  0.06986000  0.20051000  1.0
  N  N128  1  0.52510000  0.00576000  0.17541000  1.0
  N  N129  1  0.40610000  0.01566000  0.16363000  1.0
  N  N130  1  0.99728000  0.57322000  0.00308000  1.0
  N  N131  1  0.00112000  0.44918000  0.00267000  1.0
  N  N132  1  0.06522000  0.48226000  0.02788000  1.0
  N  N133  1  0.06164000  0.60642000  0.02825000  1.0
  N  N134  1  0.56414000  0.55294000  0.83125000  1.0
  N  N135  1  0.43410000  0.43596000  0.84377000  1.0
  N  N136  1  0.46926000  0.40754000  0.86926000  1.0
  N  N137  1  0.59932000  0.52440000  0.85663000  1.0
  N  N138  1  0.40122000  0.92122000  0.70332000  1.0
  N  N139  1  0.51926000  0.90958000  0.69165000  1.0
  N  N140  1  0.54638000  0.97096000  0.66495000  1.0
  N  N141  1  0.42808000  0.98224000  0.67645000  1.0
  N  N142  1  0.95084000  0.53990000  0.49403000  1.0
  N  N143  1  0.96288000  0.42148000  0.50366000  1.0
  N  N144  1  0.89424000  0.38766000  0.52598000  1.0
  N  N145  1  0.88208000  0.50596000  0.51613000  1.0
  N  N146  1  0.52642000  0.54888000  0.34544000  1.0
  N  N147  1  0.39668000  0.43318000  0.33095000  1.0
  N  N148  1  0.36128000  0.45858000  0.35779000  1.0
  N  N149  1  0.49096000  0.57426000  0.37238000  1.0
  O  O150  1  0.70788000  0.30114000  0.97576000  1.0
  O  O151  1  0.67894000  0.39918000  0.96823000  1.0
  O  O152  1  0.71070000  0.40504000  0.84486000  1.0
  O  O153  1  0.54680000  0.34080000  0.91547000  1.0
  O  O154  1  0.67382000  0.44876000  0.89809000  1.0
  O  O155  1  0.67558000  0.22364000  0.92251000  1.0
  O  O156  1  0.68342000  0.27864000  0.85281000  1.0
  O  O157  1  0.86576000  0.48330000  0.87319000  1.0
  O  O158  1  0.85686000  0.36192000  0.87363000  1.0
  O  O159  1  0.54858000  0.20300000  0.90404000  1.0
  O  O160  1  0.86762000  0.38258000  0.94708000  1.0
  O  O161  1  0.85544000  0.49294000  0.94941000  1.0
  O  O162  1  0.29238000  0.61124000  0.80709000  1.0
  O  O163  1  0.42300000  0.70150000  0.80440000  1.0
  O  O164  1  0.37014000  0.68100000  0.68182000  1.0
  O  O165  1  0.33954000  0.78176000  0.75403000  1.0
  O  O166  1  0.44026000  0.75758000  0.73013000  1.0
  O  O167  1  0.21596000  0.53176000  0.75909000  1.0
  O  O168  1  0.27356000  0.55268000  0.68560000  1.0
  O  O169  1  0.47666000  0.60824000  0.70747000  1.0
  O  O170  1  0.35922000  0.49106000  0.70997000  1.0
  O  O171  1  0.19160000  0.63208000  0.73482000  1.0
  O  O172  1  0.36426000  0.49972000  0.78666000  1.0
  O  O173  1  0.48358000  0.61278000  0.77918000  1.0
  O  O174  1  0.55544000  0.24340000  0.64479000  1.0
  O  O175  1  0.68668000  0.29058000  0.63384000  1.0
  O  O176  1  0.64998000  0.25348000  0.50849000  1.0
  O  O177  1  0.71912000  0.41450000  0.54093000  1.0
  O  O178  1  0.74034000  0.31266000  0.56609000  1.0
  O  O179  1  0.52842000  0.30876000  0.58653000  1.0
  O  O180  1  0.54278000  0.26864000  0.51770000  1.0
  O  O181  1  0.58862000  0.10766000  0.53873000  1.0
  O  O182  1  0.47112000  0.10778000  0.54244000  1.0
  O  O183  1  0.65336000  0.41466000  0.60729000  1.0
  O  O184  1  0.48438000  0.10700000  0.61620000  1.0
  O  O185  1  0.60402000  0.11204000  0.61159000  1.0
  O  O186  1  0.28482000  0.67766000  0.47351000  1.0
  O  O187  1  0.24286000  0.54668000  0.47141000  1.0
  O  O188  1  0.24560000  0.56662000  0.34594000  1.0
  O  O189  1  0.40990000  0.63482000  0.42158000  1.0
  O  O190  1  0.28568000  0.53012000  0.39919000  1.0
  O  O191  1  0.28698000  0.75578000  0.42331000  1.0
  O  O192  1  0.28458000  0.69648000  0.35298000  1.0
  O  O193  1  0.09636000  0.50164000  0.37163000  1.0
  O  O194  1  0.10558000  0.62290000  0.37567000  1.0
  O  O195  1  0.41426000  0.77782000  0.40401000  1.0
  O  O196  1  0.09860000  0.60854000  0.44685000  1.0
  O  O197  1  0.10028000  0.49214000  0.44915000  1.0
  O  O198  1  0.65976000  0.36002000  0.30336000  1.0
  O  O199  1  0.52618000  0.29104000  0.30177000  1.0
  O  O200  1  0.54614000  0.32032000  0.17571000  1.0
  O  O201  1  0.61895000  0.21329000  0.24724000  1.0
  O  O202  1  0.51368000  0.23400000  0.22770000  1.0
  O  O203  1  0.74524000  0.45778000  0.25779500  1.0
  O  O204  1  0.67816000  0.37782000  0.18521000  1.0
  O  O205  1  0.51234000  0.42486000  0.20409000  1.0
  O  O206  1  0.64276000  0.51812000  0.21095000  1.0
  O  O207  1  0.76932000  0.35408000  0.23820000  1.0
  O  O208  1  0.59698000  0.48888000  0.28658000  1.0
  O  O209  1  0.47644000  0.37906000  0.27587000  1.0
  O  O210  1  0.40440000  0.73728000  0.14546000  1.0
  O  O211  1  0.27246000  0.68090000  0.13549000  1.0
  O  O212  1  0.29586000  0.71138000  0.01307000  1.0
  O  O213  1  0.21472000  0.56082000  0.07004000  1.0
  O  O214  1  0.21414000  0.68276000  0.06830000  1.0
  O  O215  1  0.42612000  0.67300000  0.08627000  1.0
  O  O216  1  0.41410000  0.71634000  0.01960000  1.0
  O  O217  1  0.36924000  0.87456000  0.03920000  1.0
  O  O218  1  0.48528000  0.87218000  0.04355000  1.0
  O  O219  1  0.55670000  0.78332000  0.09418000  1.0
  O  O220  1  0.46854000  0.87742000  0.11788000  1.0
  O  O221  1  0.34747000  0.86879000  0.11318000  1.0
