# generated using pymatgen
data_Fe3H6C24O13F6
_symmetry_space_group_name_H-M   'P 1'
_cell_length_a   11.66673333
_cell_length_b   31.68402109
_cell_length_c   31.68450000
_cell_angle_alpha   119.99950000
_cell_angle_beta   90.00000000
_cell_angle_gamma   90.00000000
_symmetry_Int_Tables_number   1
_chemical_formula_structural   Fe3H6C24O13F6
_chemical_formula_sum   'Fe18 H36 C144 O78 F36'
_cell_volume   10143.06580038
_cell_formula_units_Z   6
loop_
 _symmetry_equiv_pos_site_id
 _symmetry_equiv_pos_as_xyz
  1  'x, y, z'
loop_
 _atom_site_type_symbol
 _atom_site_label
 _atom_site_symmetry_multiplicity
 _atom_site_fract_x
 _atom_site_fract_y
 _atom_site_fract_z
 _atom_site_occupancy
  C  C0  1  0.48685000  0.78928000  0.18671000  1.0
  C  C1  1  0.97961000  0.79148000  0.18832000  1.0
  C  C2  1  0.32133000  0.77347000  0.30363000  1.0
  C  C3  1  0.18337000  0.88367000  0.26735000  1.0
  C  C4  1  0.81597000  0.79338000  0.60817000  1.0
  C  C5  1  0.30862000  0.79061000  0.60721000  1.0
  C  C6  1  0.47451000  0.77133000  0.47450000  1.0
  C  C7  1  0.61203000  0.88321000  0.61251000  1.0
  C  C8  1  0.61131000  0.79058000  0.17555000  1.0
  C  C9  1  0.67208000  0.83436000  0.19109000  1.0
  C  C10  1  0.79364000  0.83466000  0.19083000  1.0
  C  C11  1  0.85636000  0.79118000  0.17496000  1.0
  C  C12  1  0.93919000  0.79515000  0.62224000  1.0
  C  C13  1  0.00225000  0.83906000  0.64362000  1.0
  C  C14  1  0.12376000  0.83854000  0.64280000  1.0
  C  C15  1  0.18432000  0.79410000  0.62065000  1.0
  C  C16  1  0.15003000  0.96110000  0.34451000  1.0
  C  C17  1  0.16426000  0.93620000  0.29379000  1.0
  C  C18  1  0.15210000  0.96120000  0.26789000  1.0
  C  C19  1  0.73476000  0.95615000  0.64290000  1.0
  C  C20  1  0.62466000  0.93563000  0.63357000  1.0
  C  C21  1  0.52771000  0.96575000  0.64813000  1.0
  C  C22  1  0.35944000  0.77472000  0.34831000  1.0
  C  C23  1  0.43030000  0.77362000  0.43236000  1.0
  C  C24  1  0.41675000  0.81826000  0.43338000  1.0
  C  C25  1  0.38005000  0.81882000  0.39159000  1.0
  C  C26  1  0.28202000  0.70674000  0.09846000  1.0
  C  C27  1  0.51542000  0.71437000  0.62079000  1.0
  C  C28  1  0.79487000  0.74726000  0.15626000  1.0
  C  C29  1  0.67471000  0.74695000  0.15659000  1.0
  C  C30  1  0.12079000  0.75060000  0.60249000  1.0
  C  C31  1  0.00045000  0.75112000  0.60312000  1.0
  C  C32  1  0.48380000  0.71392000  0.69775000  1.0
  C  C33  1  0.37274000  0.73042000  0.34769000  1.0
  C  C34  1  0.40684000  0.72989000  0.38934000  1.0
  C  C35  1  0.45753000  0.68934000  0.72257000  1.0
  C  C36  1  0.63719000  0.59880000  0.79918000  1.0
  C  C37  1  0.12990000  0.59962000  0.80332000  1.0
  C  C38  1  0.29049000  0.46506000  0.68784000  1.0
  C  C39  1  0.47191000  0.46524000  0.77938000  1.0
  C  C40  1  0.33556000  0.60377000  0.89261000  1.0
  C  C41  1  0.42809000  0.61249000  0.72353000  1.0
  C  C42  1  0.14108000  0.68053000  0.21089000  1.0
  C  C43  1  0.29965000  0.18001000  0.38233000  1.0
  C  C44  1  0.79245000  0.18326000  0.38295000  1.0
  C  C45  1  0.95827000  0.19953000  0.51652000  1.0
  C  C46  1  0.13815000  0.29147000  0.51680000  1.0
  C  C47  1  0.99838000  0.26550000  0.37728000  1.0
  C  C48  1  0.09443000  0.08829000  0.36936000  1.0
  C  C49  1  0.15270000  0.37395000  0.19174000  1.0
  C  C50  1  0.64528000  0.37379000  0.18946000  1.0
  C  C51  1  0.80777000  0.50733000  0.30119000  1.0
  C  C52  1  0.98765000  0.50736000  0.20849000  1.0
  C  C53  1  0.84930000  0.36130000  0.09774000  1.0
  C  C54  1  0.94579000  0.36840000  0.27430000  1.0
  C  C55  1  0.96557000  0.17968000  0.80159000  1.0
  C  C56  1  0.45837000  0.17685000  0.79785000  1.0
  C  C57  1  0.62414000  0.29429000  0.78203000  1.0
  C  C58  1  0.80513000  0.20263000  0.69024000  1.0
  C  C59  1  0.66500000  0.08907000  0.71577000  1.0
  C  C60  1  0.75956000  0.25833000  0.89324000  1.0
  C  C61  1  0.65531000  0.67853000  0.47418000  1.0
  C  C62  1  0.76159000  0.61228000  0.80309000  1.0
  C  C63  1  0.82147000  0.63426000  0.84769000  1.0
  C  C64  1  0.94299000  0.63499000  0.84855000  1.0
  C  C65  1  0.00677000  0.61374000  0.80484000  1.0
  C  C66  1  0.94623000  0.59480000  0.76064000  1.0
  C  C67  1  0.82588000  0.59423000  0.75978000  1.0
  C  C68  1  0.66800000  0.18127000  0.37025000  1.0
  C  C69  1  0.60413000  0.22458000  0.39540000  1.0
  C  C70  1  0.48418000  0.22404000  0.39499000  1.0
  C  C71  1  0.42296000  0.18020000  0.36922000  1.0
  C  C72  1  0.48597000  0.13685000  0.34095000  1.0
  C  C73  1  0.60776000  0.13739000  0.34146000  1.0
  C  C74  1  0.52202000  0.36030000  0.18888000  1.0
  C  C75  1  0.45930000  0.33561000  0.14501000  1.0
  C  C76  1  0.33782000  0.33598000  0.14534000  1.0
  C  C77  1  0.27694000  0.36090000  0.18956000  1.0
  C  C78  1  0.34023000  0.38248000  0.23334000  1.0
  C  C79  1  0.46058000  0.38234000  0.23299000  1.0
  C  C80  1  0.33383000  0.16600000  0.79957000  1.0
  C  C81  1  0.27377000  0.18183000  0.84356000  1.0
  C  C82  1  0.15220000  0.18189000  0.84426000  1.0
  C  C83  1  0.08873000  0.16601000  0.80096000  1.0
  C  C84  1  0.14948000  0.14704000  0.75684000  1.0
  C  C85  1  0.26966000  0.14706000  0.75613000  1.0
  C  C86  1  0.44552000  0.63843000  0.69686000  1.0
  C  C87  1  0.45934000  0.61243000  0.64611000  1.0
  C  C88  1  0.48283000  0.63721000  0.62109000  1.0
  C  C89  1  0.49654000  0.68795000  0.64688000  1.0
  C  C90  1  0.32323000  0.62483000  0.94506000  1.0
  C  C91  1  0.21316000  0.63325000  0.96554000  1.0
  C  C92  1  0.19977000  0.65915000  0.01589000  1.0
  C  C93  1  0.29636000  0.67563000  0.04607000  1.0
  C  C94  1  0.40681000  0.66512000  0.02562000  1.0
  C  C95  1  0.42012000  0.64022000  0.97524000  1.0
  C  C96  1  0.11292000  0.03572000  0.34339000  1.0
  C  C97  1  0.12646000  0.01091000  0.36934000  1.0
  C  C98  1  0.12561000  0.01062000  0.29252000  1.0
  C  C99  1  0.95799000  0.34724000  0.30559000  1.0
  C  C100  1  0.06803000  0.33806000  0.31695000  1.0
  C  C101  1  0.08118000  0.31220000  0.34143000  1.0
  C  C102  1  0.98443000  0.29658000  0.35594000  1.0
  C  C103  1  0.87403000  0.30794000  0.34678000  1.0
  C  C104  1  0.86095000  0.33271000  0.32114000  1.0
  C  C105  1  0.77738000  0.28507000  0.94585000  1.0
  C  C106  1  0.79219000  0.33577000  0.97045000  1.0
  C  C107  1  0.81606000  0.36085000  0.02023000  1.0
  C  C108  1  0.82932000  0.33516000  0.04529000  1.0
  C  C109  1  0.81548000  0.28434000  0.02056000  1.0
  C  C110  1  0.78868000  0.25947000  0.97119000  1.0
  C  C111  1  0.65121000  0.03665000  0.68459000  1.0
  C  C112  1  0.74796000  0.00651000  0.66891000  1.0
  C  C113  1  0.54086000  0.01613000  0.67314000  1.0
  C  C114  1  0.51654000  0.42267000  0.78093000  1.0
  C  C115  1  0.52543000  0.42304000  0.82535000  1.0
  C  C116  1  0.56225000  0.38142000  0.82609000  1.0
  C  C117  1  0.58766000  0.33871000  0.78233000  1.0
  C  C118  1  0.57983000  0.33856000  0.73797000  1.0
  C  C119  1  0.54525000  0.38013000  0.73728000  1.0
  C  C120  1  0.18256000  0.33558000  0.55948000  1.0
  C  C121  1  0.19130000  0.37966000  0.55917000  1.0
  C  C122  1  0.22803000  0.42202000  0.60082000  1.0
  C  C123  1  0.25347000  0.42094000  0.64352000  1.0
  C  C124  1  0.24563000  0.37673000  0.64365000  1.0
  C  C125  1  0.21123000  0.33444000  0.60201000  1.0
  C  C126  1  0.02604000  0.55087000  0.20741000  1.0
  C  C127  1  0.04053000  0.59440000  0.25178000  1.0
  C  C128  1  0.07451000  0.63665000  0.25239000  1.0
  C  C129  1  0.09672000  0.63615000  0.20868000  1.0
  C  C130  1  0.08203000  0.59268000  0.16398000  1.0
  C  C131  1  0.04544000  0.55029000  0.16336000  1.0
  C  C132  1  0.85040000  0.20101000  0.64617000  1.0
  C  C133  1  0.85964000  0.15652000  0.60221000  1.0
  C  C134  1  0.89667000  0.15565000  0.55981000  1.0
  C  C135  1  0.92195000  0.19936000  0.56073000  1.0
  C  C136  1  0.91395000  0.24379000  0.60488000  1.0
  C  C137  1  0.87921000  0.24461000  0.64719000  1.0
  C  C138  1  0.76425000  0.54968000  0.34563000  1.0
  C  C139  1  0.74240000  0.59286000  0.34500000  1.0
  C  C140  1  0.70868000  0.63461000  0.38720000  1.0
  C  C141  1  0.69410000  0.63392000  0.43080000  1.0
  C  C142  1  0.71345000  0.59051000  0.43153000  1.0
  C  C143  1  0.74977000  0.54863000  0.38918000  1.0
  F  F144  1  0.16238000  0.93751000  0.21859000  1.0
  F  F145  1  0.42058000  0.94637000  0.63893000  1.0
  F  F146  1  0.43805000  0.86112000  0.47475000  1.0
  F  F147  1  0.36742000  0.86212000  0.39303000  1.0
  F  F148  1  0.85171000  0.70456000  0.14068000  1.0
  F  F149  1  0.62002000  0.70385000  0.14128000  1.0
  F  F150  1  0.17565000  0.70694000  0.58108000  1.0
  F  F151  1  0.94324000  0.70800000  0.58181000  1.0
  F  F152  1  0.49336000  0.76325000  0.72332000  1.0
  F  F153  1  0.44770000  0.71516000  0.77188000  1.0
  F  F154  1  0.00411000  0.57361000  0.71769000  1.0
  F  F155  1  0.77173000  0.57299000  0.71596000  1.0
  F  F156  1  0.43022000  0.09355000  0.31663000  1.0
  F  F157  1  0.66603000  0.09471000  0.31735000  1.0
  F  F158  1  0.28510000  0.40681000  0.27684000  1.0
  F  F159  1  0.51752000  0.40679000  0.27603000  1.0
  F  F160  1  0.09192000  0.13149000  0.71431000  1.0
  F  F161  1  0.32364000  0.13147000  0.71285000  1.0
  F  F162  1  0.50153000  0.68154000  0.05424000  1.0
  F  F163  1  0.52725000  0.63190000  0.95592000  1.0
  F  F164  1  0.11604000  0.03422000  0.26680000  1.0
  F  F165  1  0.77909000  0.29257000  0.36003000  1.0
  F  F166  1  0.75390000  0.34186000  0.31083000  1.0
  F  F167  1  0.82462000  0.25892000  0.04449000  1.0
  F  F168  1  0.77773000  0.21021000  0.94784000  1.0
  F  F169  1  0.44592000  0.04468000  0.68873000  1.0
  F  F170  1  0.60735000  0.29830000  0.69502000  1.0
  F  F171  1  0.53627000  0.37790000  0.69346000  1.0
  F  F172  1  0.27315000  0.37405000  0.68391000  1.0
  F  F173  1  0.20253000  0.29279000  0.60414000  1.0
  F  F174  1  0.10211000  0.59139000  0.12114000  1.0
  F  F175  1  0.03171000  0.50861000  0.11998000  1.0
  F  F176  1  0.94133000  0.28669000  0.60743000  1.0
  F  F177  1  0.87007000  0.28847000  0.68871000  1.0
  F  F178  1  0.69974000  0.58897000  0.47329000  1.0
  F  F179  1  0.76961000  0.50713000  0.39060000  1.0
  Fe  Fe180  1  0.23243000  0.80384000  0.17279000  1.0
  Fe  Fe181  1  0.12565000  0.78863000  0.26003000  1.0
  Fe  Fe182  1  0.56201000  0.80929000  0.63554000  1.0
  Fe  Fe183  1  0.67358000  0.78626000  0.53175000  1.0
  Fe  Fe184  1  0.34071000  0.72234000  0.19572000  1.0
  Fe  Fe185  1  0.45848000  0.72122000  0.53274000  1.0
  Fe  Fe186  1  0.38387000  0.62705000  0.81867000  1.0
  Fe  Fe187  1  0.48647000  0.52432000  0.72993000  1.0
  Fe  Fe188  1  0.27308000  0.52306000  0.79571000  1.0
  Fe  Fe189  1  0.04677000  0.16824000  0.35455000  1.0
  Fe  Fe190  1  0.15310000  0.18323000  0.45703000  1.0
  Fe  Fe191  1  0.93904000  0.25020000  0.45910000  1.0
  Fe  Fe192  1  0.89811000  0.34593000  0.17707000  1.0
  Fe  Fe193  1  0.00699000  0.45000000  0.25913000  1.0
  Fe  Fe194  1  0.79152000  0.44862000  0.19308000  1.0
  Fe  Fe195  1  0.71268000  0.16351000  0.81314000  1.0
  Fe  Fe196  1  0.81895000  0.25124000  0.79849000  1.0
  Fe  Fe197  1  0.60549000  0.18622000  0.73121000  1.0
  H  H198  1  0.62620000  0.86862000  0.20668000  1.0
  H  H199  1  0.83822000  0.86924000  0.20659000  1.0
  H  H200  1  0.95789000  0.87350000  0.65739000  1.0
  H  H201  1  0.16975000  0.87258000  0.65629000  1.0
  H  H202  1  0.15826000  0.94212000  0.36486000  1.0
  H  H203  1  0.81051000  0.93329000  0.63216000  1.0
  H  H204  1  0.35564000  0.69593000  0.31501000  1.0
  H  H205  1  0.41760000  0.69498000  0.38738000  1.0
  H  H206  1  0.77490000  0.64764000  0.88158000  1.0
  H  H207  1  0.98677000  0.64863000  0.88311000  1.0
  H  H208  1  0.64738000  0.25896000  0.41808000  1.0
  H  H209  1  0.43891000  0.25791000  0.41760000  1.0
  H  H210  1  0.50384000  0.31938000  0.11041000  1.0
  H  H211  1  0.29200000  0.31987000  0.11104000  1.0
  H  H212  1  0.32024000  0.19742000  0.87769000  1.0
  H  H213  1  0.10823000  0.19786000  0.87898000  1.0
  H  H214  1  0.45125000  0.57309000  0.62589000  1.0
  H  H215  1  0.49142000  0.61681000  0.58178000  1.0
  H  H216  1  0.13742000  0.62190000  0.94268000  1.0
  H  H217  1  0.11418000  0.66703000  0.03124000  1.0
  H  H218  1  0.11787000  0.02997000  0.40865000  1.0
  H  H219  1  0.14380000  0.34880000  0.30486000  1.0
  H  H220  1  0.16670000  0.30371000  0.34835000  1.0
  H  H221  1  0.78459000  0.35590000  0.95122000  1.0
  H  H222  1  0.82545000  0.40013000  0.03903000  1.0
  H  H223  1  0.83348000  0.02190000  0.67749000  1.0
  H  H224  1  0.50389000  0.45544000  0.85940000  1.0
  H  H225  1  0.56859000  0.38227000  0.86062000  1.0
  H  H226  1  0.16982000  0.38135000  0.52678000  1.0
  H  H227  1  0.23438000  0.45570000  0.59997000  1.0
  H  H228  1  0.02439000  0.59603000  0.28625000  1.0
  H  H229  1  0.08621000  0.66949000  0.28732000  1.0
  H  H230  1  0.83809000  0.12250000  0.60064000  1.0
  H  H231  1  0.90315000  0.12107000  0.52620000  1.0
  H  H232  1  0.75401000  0.59483000  0.31210000  1.0
  H  H233  1  0.69263000  0.66740000  0.38546000  1.0
  O  O234  1  0.40400000  0.79968000  0.16434000  1.0
  O  O235  1  0.00058000  0.77222000  0.21564000  1.0
  O  O236  1  0.06164000  0.81232000  0.17587000  1.0
  O  O237  1  0.23300000  0.77204000  0.20964000  1.0
  O  O238  1  0.24629000  0.80553000  0.30680000  1.0
  O  O239  1  0.25248000  0.86567000  0.22989000  1.0
  O  O240  1  0.11693000  0.85659000  0.27762000  1.0
  O  O241  1  0.73357000  0.81775000  0.64049000  1.0
  O  O242  1  0.79582000  0.77021000  0.56124000  1.0
  O  O243  1  0.39140000  0.80544000  0.64045000  1.0
  O  O244  1  0.55350000  0.80261000  0.50139000  1.0
  O  O245  1  0.56434000  0.77212000  0.56696000  1.0
  O  O246  1  0.68709000  0.85450000  0.58024000  1.0
  O  O247  1  0.53966000  0.86757000  0.63296000  1.0
  O  O248  1  0.46446000  0.76703000  0.21118000  1.0
  O  O249  1  0.11728000  0.72276000  0.24964000  1.0
  O  O250  1  0.34574000  0.73440000  0.26196000  1.0
  O  O251  1  0.21062000  0.74319000  0.11398000  1.0
  O  O252  1  0.33067000  0.76422000  0.56062000  1.0
  O  O253  1  0.44996000  0.73252000  0.47784000  1.0
  O  O254  1  0.67919000  0.72032000  0.47706000  1.0
  O  O255  1  0.58237000  0.75254000  0.64082000  1.0
  O  O256  1  0.45093000  0.70307000  0.58265000  1.0
  O  O257  1  0.35416000  0.70199000  0.12739000  1.0
  O  O258  1  0.55437000  0.63205000  0.81460000  1.0
  O  O259  1  0.61521000  0.55224000  0.77234000  1.0
  O  O260  1  0.14997000  0.55269000  0.78028000  1.0
  O  O261  1  0.21241000  0.63197000  0.82743000  1.0
  O  O262  1  0.26615000  0.46856000  0.72984000  1.0
  O  O263  1  0.36378000  0.49418000  0.68416000  1.0
  O  O264  1  0.38152000  0.55842000  0.78131000  1.0
  O  O265  1  0.49677000  0.46952000  0.74116000  1.0
  O  O266  1  0.39395000  0.49226000  0.81127000  1.0
  O  O267  1  0.40720000  0.62437000  0.87686000  1.0
  O  O268  1  0.26071000  0.57133000  0.86402000  1.0
  O  O269  1  0.49234000  0.57419000  0.71175000  1.0
  O  O270  1  0.36250000  0.63265000  0.76213000  1.0
  O  O271  1  0.21977000  0.67602000  0.17953000  1.0
  O  O272  1  0.21745000  0.15951000  0.34908000  1.0
  O  O273  1  0.27870000  0.19923000  0.42890000  1.0
  O  O274  1  0.81444000  0.20602000  0.42972000  1.0
  O  O275  1  0.87541000  0.17251000  0.35018000  1.0
  O  O276  1  0.93268000  0.23802000  0.51310000  1.0
  O  O277  1  0.03216000  0.16694000  0.48739000  1.0
  O  O278  1  0.04614000  0.20012000  0.42327000  1.0
  O  O279  1  0.16275000  0.24894000  0.51237000  1.0
  O  O280  1  0.06052000  0.29631000  0.48972000  1.0
  O  O281  1  0.06912000  0.22881000  0.35628000  1.0
  O  O282  1  0.92671000  0.27073000  0.41128000  1.0
  O  O283  1  0.16073000  0.11524000  0.40680000  1.0
  O  O284  1  0.02608000  0.10641000  0.34978000  1.0
  O  O285  1  0.06945000  0.34135000  0.18128000  1.0
  O  O286  1  0.13115000  0.42075000  0.21458000  1.0
  O  O287  1  0.66616000  0.42045000  0.20930000  1.0
  O  O288  1  0.72745000  0.34065000  0.16836000  1.0
  O  O289  1  0.78345000  0.50388000  0.25903000  1.0
  O  O290  1  0.88612000  0.48024000  0.30551000  1.0
  O  O291  1  0.89906000  0.41458000  0.20932000  1.0
  O  O292  1  0.01276000  0.50436000  0.24730000  1.0
  O  O293  1  0.91224000  0.47869000  0.17645000  1.0
  O  O294  1  0.91873000  0.34175000  0.11553000  1.0
  O  O295  1  0.78265000  0.39852000  0.12501000  1.0
  O  O296  1  0.01933000  0.40168000  0.27911000  1.0
  O  O297  1  0.87553000  0.34739000  0.23744000  1.0
  O  O298  1  0.88336000  0.16681000  0.82199000  1.0
  O  O299  1  0.94478000  0.20730000  0.78266000  1.0
  O  O300  1  0.48069000  0.20106000  0.77533000  1.0
  O  O301  1  0.54123000  0.15478000  0.80862000  1.0
  O  O302  1  0.59919000  0.25241000  0.74340000  1.0
  O  O303  1  0.69778000  0.29775000  0.81469000  1.0
  O  O304  1  0.71227000  0.20046000  0.78138000  1.0
  O  O305  1  0.82908000  0.24086000  0.73278000  1.0
  O  O306  1  0.72729000  0.17075000  0.68528000  1.0
  O  O307  1  0.73549000  0.10473000  0.75254000  1.0
  O  O308  1  0.59318000  0.11785000  0.71064000  1.0
  O  O309  1  0.82605000  0.26891000  0.86643000  1.0
  O  O310  1  0.69157000  0.22050000  0.87500000  1.0
  O  O311  1  0.58050000  0.67513000  0.50297000  1.0
