# generated using pymatgen
data_Er2H18(C9O4)3
_symmetry_space_group_name_H-M   'P 1'
_cell_length_a   12.38510000
_cell_length_b   37.71816024
_cell_length_c   37.71360000
_cell_angle_alpha   120.00400000
_cell_angle_beta   90.00000000
_cell_angle_gamma   90.00000000
_symmetry_Int_Tables_number   1
_chemical_formula_structural   Er2H18(C9O4)3
_chemical_formula_sum   'Er24 H216 C324 O144'
_cell_volume   15256.71854721
_cell_formula_units_Z   12
loop_
 _symmetry_equiv_pos_site_id
 _symmetry_equiv_pos_as_xyz
  1  'x, y, z'
loop_
 _atom_site_type_symbol
 _atom_site_label
 _atom_site_symmetry_multiplicity
 _atom_site_fract_x
 _atom_site_fract_y
 _atom_site_fract_z
 _atom_site_occupancy
  C  C0  1  0.82054000  0.56756000  0.80673000  1.0
  C  C1  1  0.02418000  0.55744000  0.67806000  1.0
  C  C2  1  0.71918000  0.56612000  0.68631000  1.0
  C  C3  1  0.69090000  0.44476000  0.66507000  1.0
  C  C4  1  0.85776000  0.42345000  0.57144000  1.0
  C  C5  1  0.00624000  0.44231000  0.67347000  1.0
  C  C6  1  0.84394000  0.71117000  0.10709000  1.0
  C  C7  1  0.99666000  0.58649000  0.00626000  1.0
  C  C8  1  0.67938000  0.56353000  0.02114000  1.0
  C  C9  1  0.73754000  0.57631000  0.12866000  1.0
  C  C10  1  0.97498000  0.49948000  0.07010000  1.0
  C  C11  1  0.05084000  0.61644000  0.12622000  1.0
  C  C12  1  0.74692000  0.05453000  0.33686000  1.0
  C  C13  1  0.02622000  0.98343000  0.35039000  1.0
  C  C14  1  0.82352000  0.96907000  0.41718000  1.0
  C  C15  1  0.77012000  0.08435000  0.49676000  1.0
  C  C16  1  0.17952000  0.02360000  0.45069000  1.0
  C  C17  1  0.00142000  0.11546000  0.43030000  1.0
  C  C18  1  0.88444000  0.36020000  0.21773000  1.0
  C  C19  1  0.04638000  0.34699000  0.32878000  1.0
  C  C20  1  0.73744000  0.39588000  0.37016000  1.0
  C  C21  1  0.80454000  0.49520000  0.36953000  1.0
  C  C22  1  0.03620000  0.43807000  0.44382000  1.0
  C  C23  1  0.11468000  0.44530000  0.31799000  1.0
  C  C24  1  0.81010000  0.13728000  0.80915000  1.0
  C  C25  1  0.04102000  0.25371000  0.93479000  1.0
  C  C26  1  0.73740000  0.29764000  0.92331000  1.0
  C  C27  1  0.77308000  0.26737000  0.81457000  1.0
  C  C28  1  0.06448000  0.35504000  0.93032000  1.0
  C  C29  1  0.08392000  0.21733000  0.80964000  1.0
  C  C30  1  0.65140000  0.83042000  0.59609000  1.0
  C  C31  1  0.01784000  0.84621000  0.58629000  1.0
  C  C32  1  0.82554000  0.86638000  0.51630000  1.0
  C  C33  1  0.79646000  0.74909000  0.43136000  1.0
  C  C34  1  0.16514000  0.75776000  0.46070000  1.0
  C  C35  1  0.95668000  0.71635000  0.50830000  1.0
  C  C36  1  0.57852000  0.02338000  0.71686000  1.0
  C  C37  1  0.24984000  0.97370000  0.64633000  1.0
  C  C38  1  0.51616000  0.95564000  0.57518000  1.0
  C  C39  1  0.51574000  0.06948000  0.59721000  1.0
  C  C40  1  0.27334000  0.96764000  0.52197000  1.0
  C  C41  1  0.26442000  0.09893000  0.68268000  1.0
  C  C42  1  0.38908000  0.74444000  0.61672000  1.0
  C  C43  1  0.27042000  0.62591000  0.61886000  1.0
  C  C44  1  0.58224000  0.62582000  0.60811000  1.0
  C  C45  1  0.55100000  0.59351000  0.48232000  1.0
  C  C46  1  0.29406000  0.51315000  0.50738000  1.0
  C  C47  1  0.22386000  0.61685000  0.50900000  1.0
  C  C48  1  0.46660000  0.50313000  0.79029000  1.0
  C  C49  1  0.21498000  0.50711000  0.87572000  1.0
  C  C50  1  0.44032000  0.46503000  0.91153000  1.0
  C  C51  1  0.48498000  0.36044000  0.80248000  1.0
  C  C52  1  0.09716000  0.41906000  0.88558000  1.0
  C  C53  1  0.22600000  0.40074000  0.75709000  1.0
  C  C54  1  0.60428000  0.81378000  0.21396000  1.0
  C  C55  1  0.26982000  0.85419000  0.28934000  1.0
  C  C56  1  0.55678000  0.86030000  0.34978000  1.0
  C  C57  1  0.56504000  0.74962000  0.31666000  1.0
  C  C58  1  0.22766000  0.76626000  0.35085000  1.0
  C  C59  1  0.29404000  0.72502000  0.23642000  1.0
  C  C60  1  0.59496000  0.19570000  0.40589000  1.0
  C  C61  1  0.29378000  0.28027000  0.38595000  1.0
  C  C62  1  0.49822000  0.36007000  0.45305000  1.0
  C  C63  1  0.51304000  0.32475000  0.54041000  1.0
  C  C64  1  0.13906000  0.35080000  0.48341000  1.0
  C  C65  1  0.26732000  0.23464000  0.46471000  1.0
  C  C66  1  0.52988000  0.32551000  0.15500000  1.0
  C  C67  1  0.27912000  0.32504000  0.06272000  1.0
  C  C68  1  0.48768000  0.38250000  0.03510000  1.0
  C  C69  1  0.53562000  0.47202000  0.15132000  1.0
  C  C70  1  0.15506000  0.45855000  0.13960000  1.0
  C  C71  1  0.33742000  0.41655000  0.19404000  1.0
  C  C72  1  0.70612000  0.56745000  0.79839000  1.0
  C  C73  1  0.54556000  0.60093000  0.79240000  1.0
  C  C74  1  0.48360000  0.56727000  0.78661000  1.0
  C  C75  1  0.53240000  0.53450000  0.78837000  1.0
  C  C76  1  0.64426000  0.53426000  0.79292000  1.0
  C  C77  1  0.49290000  0.63565000  0.79030000  1.0
  C  C78  1  0.65690000  0.60137000  0.79947000  1.0
  C  C79  1  0.80432000  0.75375000  0.12925000  1.0
  C  C80  1  0.80918000  0.82475000  0.14502000  1.0
  C  C81  1  0.72772000  0.83460000  0.17448000  1.0
  C  C82  1  0.68514000  0.80431000  0.18168000  1.0
  C  C83  1  0.72330000  0.76410000  0.15867000  1.0
  C  C84  1  0.85166000  0.85692000  0.13640000  1.0
  C  C85  1  0.84700000  0.78423000  0.12235000  1.0
  C  C86  1  0.70804000  0.09009000  0.33431000  1.0
  C  C87  1  0.71422000  0.13034000  0.30010000  1.0
  C  C88  1  0.67154000  0.16395000  0.33524000  1.0
  C  C89  1  0.64484000  0.16079000  0.36978000  1.0
  C  C90  1  0.66182000  0.12358000  0.36885000  1.0
  C  C91  1  0.74674000  0.13463000  0.26411000  1.0
  C  C92  1  0.73376000  0.09371000  0.30000000  1.0
  C  C93  1  0.64532000  0.32570000  0.14761000  1.0
  C  C94  1  0.80578000  0.30405000  0.10486000  1.0
  C  C95  1  0.87078000  0.32200000  0.14036000  1.0
  C  C96  1  0.82252000  0.34228000  0.17926000  1.0
  C  C97  1  0.71010000  0.34450000  0.18219000  1.0
  C  C98  1  0.85710000  0.28108000  0.06332000  1.0
  C  C99  1  0.69232000  0.30549000  0.10868000  1.0
  C  C100  1  0.76166000  0.09793000  0.79914000  1.0
  C  C101  1  0.71294000  0.04565000  0.81614000  1.0
  C  C102  1  0.65544000  0.02451000  0.77912000  1.0
  C  C103  1  0.64974000  0.04055000  0.75271000  1.0
  C  C104  1  0.70620000  0.07636000  0.76237000  1.0
  C  C105  1  0.72086000  0.02829000  0.84418000  1.0
  C  C106  1  0.76532000  0.08263000  0.82622000  1.0
  C  C107  1  0.42582000  0.78615000  0.62879000  1.0
  C  C108  1  0.43020000  0.85976000  0.67572000  1.0
  C  C109  1  0.51652000  0.86331000  0.65349000  1.0
  C  C110  1  0.55642000  0.82856000  0.61862000  1.0
  C  C111  1  0.50880000  0.79057000  0.60610000  1.0
  C  C112  1  0.39176000  0.89685000  0.71398000  1.0
  C  C113  1  0.38606000  0.82097000  0.66364000  1.0
  C  C114  1  0.32332000  0.43451000  0.23887000  1.0
  C  C115  1  0.40280000  0.47246000  0.30708000  1.0
  C  C116  1  0.30438000  0.47084000  0.32459000  1.0
  C  C117  1  0.21488000  0.45105000  0.29979000  1.0
  C  C118  1  0.22398000  0.43404000  0.25672000  1.0
  C  C119  1  0.49898000  0.49261000  0.33385000  1.0
  C  C120  1  0.41262000  0.45326000  0.26436000  1.0
  C  C121  1  0.15082000  0.19957000  0.77148000  1.0
  C  C122  1  0.22908000  0.21097000  0.71850000  1.0
  C  C123  1  0.25108000  0.16914000  0.69447000  1.0
  C  C124  1  0.22744000  0.14199000  0.70862000  1.0
  C  C125  1  0.17628000  0.15721000  0.74731000  1.0
  C  C126  1  0.25114000  0.23952000  0.70242000  1.0
  C  C127  1  0.17974000  0.22589000  0.75670000  1.0
  C  C128  1  0.98198000  0.67579000  0.50439000  1.0
  C  C129  1  0.92066000  0.61500000  0.50606000  1.0
  C  C130  1  0.02730000  0.60113000  0.50208000  1.0
  C  C131  1  0.11242000  0.62442000  0.50003000  1.0
  C  C132  1  0.08874000  0.66121000  0.49990000  1.0
  C  C133  1  0.83320000  0.59268000  0.51432000  1.0
  C  C134  1  0.89846000  0.65215000  0.50731000  1.0
  C  C135  1  0.16592000  0.38901000  0.71892000  1.0
  C  C136  1  0.08828000  0.33721000  0.65420000  1.0
  C  C137  1  0.04762000  0.36807000  0.64727000  1.0
  C  C138  1  0.06566000  0.40945000  0.67592000  1.0
  C  C139  1  0.12816000  0.41950000  0.71103000  1.0
  C  C140  1  0.06384000  0.29314000  0.62438000  1.0
  C  C141  1  0.14452000  0.34788000  0.69062000  1.0
  C  C142  1  0.25656000  0.68235000  0.20987000  1.0
  C  C143  1  0.28518000  0.61029000  0.18747000  1.0
  C  C144  1  0.20278000  0.59957000  0.15855000  1.0
  C  C145  1  0.14292000  0.62961000  0.15564000  1.0
  C  C146  1  0.17116000  0.67143000  0.18134000  1.0
  C  C147  1  0.34856000  0.57754000  0.18961000  1.0
  C  C148  1  0.31220000  0.65153000  0.21275000  1.0
  C  C149  1  0.04446000  0.15162000  0.42843000  1.0
  C  C150  1  0.02516000  0.19390000  0.39643000  1.0
  C  C151  1  0.11572000  0.21633000  0.41754000  1.0
  C  C152  1  0.17246000  0.20772000  0.44458000  1.0
  C  C153  1  0.13718000  0.17487000  0.45006000  1.0
  C  C154  1  0.96962000  0.20204000  0.36580000  1.0
  C  C155  1  0.99018000  0.16196000  0.40196000  1.0
  C  C156  1  0.62656000  0.63194000  0.64687000  1.0
  C  C157  1  0.67370000  0.67614000  0.71884000  1.0
  C  C158  1  0.68944000  0.64136000  0.72274000  1.0
  C  C159  1  0.67044000  0.60242000  0.68920000  1.0
  C  C160  1  0.63472000  0.59826000  0.65224000  1.0
  C  C161  1  0.69656000  0.71793000  0.75433000  1.0
  C  C162  1  0.64504000  0.67125000  0.68052000  1.0
  C  C163  1  0.46114000  0.49363000  0.95471000  1.0
  C  C164  1  0.38772000  0.53791000  0.02287000  1.0
  C  C165  1  0.48616000  0.55889000  0.03456000  1.0
  C  C166  1  0.57202000  0.54702000  0.00653000  1.0
  C  C167  1  0.55896000  0.51469000  0.96662000  1.0
  C  C168  1  0.29768000  0.54937000  0.05333000  1.0
  C  C169  1  0.37624000  0.50475000  0.98311000  1.0
  C  C170  1  0.78626000  0.92875000  0.40795000  1.0
  C  C171  1  0.82672000  0.86037000  0.39496000  1.0
  C  C172  1  0.72530000  0.84750000  0.37638000  1.0
  C  C173  1  0.65284000  0.87551000  0.37516000  1.0
  C  C174  1  0.68464000  0.91547000  0.38978000  1.0
  C  C175  1  0.90680000  0.82974000  0.39341000  1.0
  C  C176  1  0.85656000  0.90139000  0.41126000  1.0
  C  C177  1  0.63092000  0.39108000  0.38338000  1.0
  C  C178  1  0.43636000  0.39560000  0.37898000  1.0
  C  C179  1  0.42492000  0.38663000  0.41047000  1.0
  C  C180  1  0.51588000  0.37928000  0.42819000  1.0
  C  C181  1  0.61926000  0.38197000  0.41488000  1.0
  C  C182  1  0.33828000  0.40322000  0.36049000  1.0
  C  C183  1  0.53976000  0.39786000  0.36550000  1.0
  C  C184  1  0.63336000  0.31772000  0.93722000  1.0
  C  C185  1  0.45962000  0.33639000  0.92116000  1.0
  C  C186  1  0.43972000  0.36157000  0.96313000  1.0
  C  C187  1  0.51668000  0.36479000  0.99196000  1.0
  C  C188  1  0.61540000  0.34408000  0.97863000  1.0
  C  C189  1  0.37504000  0.33158000  0.89059000  1.0
  C  C190  1  0.55580000  0.31376000  0.90836000  1.0
  C  C191  1  0.57788000  0.92275000  0.54156000  1.0
  C  C192  1  0.57256000  0.86696000  0.47112000  1.0
  C  C193  1  0.68484000  0.86358000  0.47135000  1.0
  C  C194  1  0.74386000  0.88833000  0.50728000  1.0
  C  C195  1  0.69062000  0.92026000  0.54143000  1.0
  C  C196  1  0.50582000  0.83735000  0.43556000  1.0
  C  C197  1  0.52006000  0.89469000  0.50674000  1.0
  C  C198  1  0.24098000  0.27937000  0.34963000  1.0
  C  C199  1  0.21614000  0.24911000  0.27595000  1.0
  C  C200  1  0.14314000  0.28040000  0.28218000  1.0
  C  C201  1  0.11704000  0.31153000  0.32179000  1.0
  C  C202  1  0.16556000  0.31028000  0.35535000  1.0
  C  C203  1  0.24618000  0.21704000  0.23321000  1.0
  C  C204  1  0.26630000  0.24924000  0.30957000  1.0
  C  C205  1  0.10452000  0.25343000  0.96873000  1.0
  C  C206  1  0.17848000  0.21527000  0.99979000  1.0
  C  C207  1  0.23082000  0.25061000  0.02996000  1.0
  C  C208  1  0.22042000  0.28794000  0.03077000  1.0
  C  C209  1  0.15680000  0.28918000  0.99992000  1.0
  C  C210  1  0.18650000  0.17605000  0.00071000  1.0
  C  C211  1  0.11482000  0.21698000  0.96981000  1.0
  C  C212  1  0.18724000  0.94286000  0.65206000  1.0
  C  C213  1  0.10942000  0.91935000  0.69620000  1.0
  C  C214  1  0.05678000  0.88686000  0.66243000  1.0
  C  C215  1  0.07060000  0.88102000  0.62305000  1.0
  C  C216  1  0.13534000  0.90960000  0.61834000  1.0
  C  C217  1  0.09068000  0.92577000  0.73831000  1.0
  C  C218  1  0.17442000  0.94706000  0.69086000  1.0
  C  C219  1  0.19194000  0.62802000  0.65025000  1.0
  C  C220  1  0.07930000  0.66891000  0.70988000  1.0
  C  C221  1  0.04190000  0.63331000  0.70895000  1.0
  C  C222  1  0.07768000  0.59413000  0.67913000  1.0
  C  C223  1  0.15490000  0.59187000  0.65020000  1.0
  C  C224  1  0.03592000  0.71006000  0.74094000  1.0
  C  C225  1  0.15236000  0.66603000  0.68019000  1.0
  C  C226  1  0.16122000  0.54611000  0.90648000  1.0
  C  C227  1  0.11862000  0.61812000  0.93301000  1.0
  C  C228  1  0.06306000  0.61968000  0.96637000  1.0
  C  C229  1  0.05554000  0.58494000  0.97065000  1.0
  C  C230  1  0.10442000  0.54813000  0.94024000  1.0
  C  C231  1  0.12910000  0.65606000  0.92984000  1.0
  C  C232  1  0.16918000  0.58166000  0.90378000  1.0
  C  C233  1  0.08234000  0.94759000  0.31514000  1.0
  C  C234  1  0.11786000  0.90807000  0.24174000  1.0
  C  C235  1  0.18468000  0.88112000  0.24725000  1.0
  C  C236  1  0.19964000  0.88531000  0.28601000  1.0
  C  C237  1  0.14824000  0.91914000  0.32027000  1.0
  C  C238  1  0.10462000  0.90255000  0.19972000  1.0
  C  C239  1  0.06742000  0.94097000  0.27550000  1.0
  C  C240  1  0.64598000  0.40164000  0.64452000  1.0
  C  C241  1  0.65474000  0.33236000  0.63426000  1.0
  C  C242  1  0.60582000  0.31614000  0.59541000  1.0
  C  C243  1  0.57392000  0.34177000  0.58041000  1.0
  C  C244  1  0.59330000  0.38462000  0.60550000  1.0
  C  C245  1  0.68352000  0.30425000  0.65026000  1.0
  C  C246  1  0.67380000  0.37483000  0.65862000  1.0
  C  C247  1  0.59738000  0.51124000  0.16817000  1.0
  C  C248  1  0.61716000  0.58126000  0.22465000  1.0
  C  C249  1  0.66494000  0.59334000  0.19839000  1.0
  C  C250  1  0.68000000  0.56496000  0.15681000  1.0
  C  C251  1  0.64414000  0.52383000  0.14189000  1.0
  C  C252  1  0.59884000  0.61212000  0.26888000  1.0
  C  C253  1  0.58592000  0.54032000  0.20960000  1.0
  C  C254  1  0.57330000  0.09487000  0.58226000  1.0
  C  C255  1  0.55642000  0.15343000  0.57146000  1.0
  C  C256  1  0.63884000  0.13796000  0.54209000  1.0
  C  C257  1  0.69160000  0.10135000  0.53212000  1.0
  C  C258  1  0.65982000  0.08000000  0.55310000  1.0
  C  C259  1  0.50144000  0.19266000  0.58083000  1.0
  C  C260  1  0.52416000  0.13190000  0.59114000  1.0
  C  C261  1  0.61814000  0.58191000  0.44477000  1.0
  C  C262  1  0.67980000  0.59631000  0.39169000  1.0
  C  C263  1  0.73264000  0.55817000  0.37102000  1.0
  C  C264  1  0.73234000  0.53191000  0.38716000  1.0
  C  C265  1  0.67414000  0.54389000  0.42401000  1.0
  C  C266  1  0.68052000  0.62420000  0.37402000  1.0
  C  C267  1  0.62296000  0.60788000  0.42823000  1.0
  C  C268  1  0.68930000  0.27672000  0.79139000  1.0
  C  C269  1  0.58262000  0.25263000  0.72922000  1.0
  C  C270  1  0.53016000  0.29065000  0.74581000  1.0
  C  C271  1  0.55484000  0.32262000  0.78513000  1.0
  C  C272  1  0.63638000  0.31569000  0.80792000  1.0
  C  C273  1  0.55228000  0.21845000  0.68757000  1.0
  C  C274  1  0.65946000  0.24561000  0.75233000  1.0
  C  C275  1  0.75316000  0.72926000  0.38774000  1.0
  C  C276  1  0.80680000  0.68715000  0.31566000  1.0
  C  C277  1  0.72446000  0.70415000  0.30346000  1.0
  C  C278  1  0.65048000  0.73175000  0.33184000  1.0
  C  C279  1  0.66444000  0.74382000  0.37440000  1.0
  C  C280  1  0.88502000  0.65728000  0.28474000  1.0
  C  C281  1  0.82076000  0.69980000  0.35718000  1.0
  C  C282  1  0.07270000  0.44266000  0.48201000  1.0
  C  C283  1  0.02504000  0.50459000  0.54468000  1.0
  C  C284  1  0.12826000  0.51914000  0.54448000  1.0
  C  C285  1  0.20556000  0.49358000  0.51576000  1.0
  C  C286  1  0.18126000  0.45315000  0.48798000  1.0
  C  C287  1  0.93762000  0.53400000  0.56995000  1.0
  C  C288  1  0.99844000  0.46506000  0.51378000  1.0
  C  C289  1  0.05504000  0.39742000  0.96330000  1.0
  C  C290  1  0.88394000  0.42558000  0.95733000  1.0
  C  C291  1  0.93450000  0.43514000  0.92968000  1.0
  C  C292  1  0.04694000  0.43076000  0.92485000  1.0
  C  C293  1  0.10694000  0.42222000  0.95124000  1.0
  C  C294  1  0.76340000  0.42773000  0.96174000  1.0
  C  C295  1  0.94634000  0.40706000  0.97510000  1.0
  C  C296  1  0.22052000  0.73703000  0.36526000  1.0
  C  C297  1  0.16530000  0.67235000  0.35879000  1.0
  C  C298  1  0.18478000  0.68909000  0.40097000  1.0
  C  C299  1  0.22424000  0.72934000  0.42402000  1.0
  C  C300  1  0.26386000  0.74836000  0.40349000  1.0
  C  C301  1  0.11684000  0.63048000  0.33448000  1.0
  C  C302  1  0.17704000  0.69764000  0.34146000  1.0
  C  C303  1  0.02562000  0.35733000  0.48556000  1.0
  C  C304  1  0.84464000  0.33033000  0.46659000  1.0
  C  C305  1  0.80688000  0.36296000  0.50399000  1.0
  C  C306  1  0.88172000  0.39141000  0.53123000  1.0
  C  C307  1  0.98896000  0.38862000  0.52183000  1.0
  C  C308  1  0.77104000  0.29671000  0.43809000  1.0
  C  C309  1  0.95456000  0.32832000  0.45689000  1.0
  C  C310  1  0.04208000  0.46928000  0.14544000  1.0
  C  C311  1  0.88922000  0.42740000  0.10712000  1.0
  C  C312  1  0.89080000  0.44692000  0.08367000  1.0
  C  C313  1  0.96226000  0.47963000  0.09439000  1.0
  C  C314  1  0.01938000  0.49547000  0.13085000  1.0
  C  C315  1  0.81514000  0.39200000  0.09575000  1.0
  C  C316  1  0.96936000  0.43748000  0.13713000  1.0
  C  C317  1  0.30656000  0.95889000  0.48139000  1.0
  C  C318  1  0.44846000  0.98553000  0.45613000  1.0
  C  C319  1  0.36884000  0.00323000  0.44385000  1.0
  C  C320  1  0.26132000  0.99652000  0.44902000  1.0
  C  C321  1  0.23084000  0.96916000  0.46153000  1.0
  C  C322  1  0.56162000  0.00004000  0.45900000  1.0
  C  C323  1  0.41738000  0.96334000  0.47528000  1.0
  Er  Er324  1  0.85546000  0.48977000  0.64415000  1.0
  Er  Er325  1  0.85946000  0.51593000  0.71020000  1.0
  Er  Er326  1  0.88878000  0.55444000  0.05554000  1.0
  Er  Er327  1  0.84554000  0.61928000  0.08548000  1.0
  Er  Er328  1  0.97652000  0.04313000  0.44579000  1.0
  Er  Er329  1  0.84298000  0.04148000  0.40446000  1.0
  Er  Er330  1  0.95822000  0.43594000  0.37739000  1.0
  Er  Er331  1  0.89572000  0.40610000  0.31431000  1.0
  Er  Er332  1  0.95158000  0.28758000  0.87955000  1.0
  Er  Er333  1  0.87910000  0.22702000  0.86149000  1.0
  Er  Er334  1  0.97580000  0.79246000  0.49432000  1.0
  Er  Er335  1  0.82968000  0.79381000  0.52829000  1.0
  Er  Er336  1  0.31886000  0.01926000  0.60195000  1.0
  Er  Er337  1  0.44382000  0.03126000  0.65081000  1.0
  Er  Er338  1  0.40982000  0.58111000  0.54181000  1.0
  Er  Er339  1  0.41606000  0.64821000  0.56380000  1.0
  Er  Er340  1  0.27770000  0.41383000  0.84275000  1.0
  Er  Er341  1  0.40030000  0.44780000  0.82472000  1.0
  Er  Er342  1  0.36416000  0.80155000  0.32375000  1.0
  Er  Er343  1  0.46498000  0.79214000  0.26999000  1.0
  Er  Er344  1  0.33260000  0.32149000  0.48258000  1.0
  Er  Er345  1  0.45902000  0.27575000  0.44512000  1.0
  Er  Er346  1  0.33696000  0.41631000  0.11023000  1.0
  Er  Er347  1  0.48058000  0.37852000  0.11415000  1.0
  H  H348  1  0.70554000  0.62746000  0.80479000  1.0
  H  H349  1  0.39708000  0.56757000  0.78245000  1.0
  H  H350  1  0.68312000  0.50903000  0.79399000  1.0
  H  H351  1  0.41590000  0.64415000  0.80774000  1.0
  H  H352  1  0.54574000  0.66314000  0.80351000  1.0
  H  H353  1  0.47582000  0.62607000  0.75781000  1.0
  H  H354  1  0.90920000  0.77659000  0.09943000  1.0
  H  H355  1  0.69838000  0.86579000  0.19181000  1.0
  H  H356  1  0.69114000  0.74066000  0.16432000  1.0
  H  H357  1  0.85080000  0.88745000  0.16466000  1.0
  H  H358  1  0.93612000  0.85001000  0.12502000  1.0
  H  H359  1  0.80028000  0.85801000  0.11284000  1.0
  H  H360  1  0.77168000  0.06838000  0.27354000  1.0
  H  H361  1  0.65894000  0.19248000  0.33541000  1.0
  H  H362  1  0.64352000  0.12133000  0.39576000  1.0
  H  H363  1  0.69178000  0.15610000  0.26082000  1.0
  H  H364  1  0.83056000  0.14659000  0.26868000  1.0
  H  H365  1  0.74292000  0.10460000  0.23532000  1.0
  H  H366  1  0.64152000  0.29043000  0.08172000  1.0
  H  H367  1  0.95794000  0.31989000  0.13758000  1.0
  H  H368  1  0.67094000  0.35990000  0.21192000  1.0
  H  H369  1  0.93780000  0.29404000  0.06341000  1.0
  H  H370  1  0.86658000  0.24842000  0.05452000  1.0
  H  H371  1  0.80628000  0.28313000  0.04012000  1.0
  H  H372  1  0.80912000  0.09921000  0.85483000  1.0
  H  H373  1  0.61288000  0.99651000  0.77165000  1.0
  H  H374  1  0.70298000  0.08879000  0.74194000  1.0
  H  H375  1  0.64724000  0.01042000  0.84189000  1.0
  H  H376  1  0.79242000  0.00790000  0.83560000  1.0
  H  H377  1  0.72920000  0.05317000  0.87654000  1.0
  H  H378  1  0.32242000  0.81795000  0.68167000  1.0
  H  H379  1  0.55298000  0.89300000  0.66372000  1.0
  H  H380  1  0.54020000  0.76377000  0.57926000  1.0
  H  H381  1  0.31052000  0.89162000  0.72292000  1.0
  H  H382  1  0.44922000  0.90394000  0.73927000  1.0
  H  H383  1  0.38700000  0.92352000  0.70911000  1.0
  H  H384  1  0.48966000  0.45383000  0.25097000  1.0
  H  H385  1  0.29832000  0.48452000  0.35754000  1.0
  H  H386  1  0.15558000  0.41900000  0.23691000  1.0
  H  H387  1  0.47350000  0.51836000  0.36407000  1.0
  H  H388  1  0.54382000  0.46983000  0.33856000  1.0
  H  H389  1  0.55354000  0.50515000  0.31942000  1.0
  H  H390  1  0.15970000  0.25818000  0.77415000  1.0
  H  H391  1  0.28936000  0.15779000  0.66484000  1.0
  H  H392  1  0.15552000  0.13637000  0.75816000  1.0
  H  H393  1  0.31192000  0.22647000  0.67744000  1.0
  H  H394  1  0.17510000  0.24505000  0.69035000  1.0
  H  H395  1  0.28234000  0.26921000  0.72733000  1.0
  H  H396  1  0.81582000  0.66300000  0.51148000  1.0
  H  H397  1  0.04404000  0.57385000  0.50390000  1.0
  H  H398  1  0.15404000  0.67998000  0.49921000  1.0
  H  H399  1  0.83756000  0.55937000  0.49191000  1.0
  H  H400  1  0.84310000  0.59792000  0.54583000  1.0
  H  H401  1  0.75256000  0.60419000  0.51249000  1.0
  H  H402  1  0.17282000  0.32418000  0.69663000  1.0
  H  H403  1  0.99842000  0.35980000  0.62046000  1.0
  H  H404  1  0.14290000  0.45134000  0.73355000  1.0
  H  H405  1  0.98402000  0.28509000  0.63180000  1.0
  H  H406  1  0.06202000  0.28773000  0.59258000  1.0
  H  H407  1  0.12656000  0.27283000  0.62584000  1.0
  H  H408  1  0.37816000  0.65961000  0.23440000  1.0
  H  H409  1  0.18586000  0.56751000  0.13818000  1.0
  H  H410  1  0.12736000  0.69519000  0.17927000  1.0
  H  H411  1  0.29820000  0.54984000  0.18015000  1.0
  H  H412  1  0.41926000  0.56918000  0.16887000  1.0
  H  H413  1  0.37668000  0.58852000  0.22140000  1.0
  H  H414  1  0.92012000  0.14477000  0.38467000  1.0
  H  H415  1  0.14272000  0.24069000  0.41249000  1.0
  H  H416  1  0.18092000  0.16751000  0.47040000  1.0
  H  H417  1  0.99512000  0.17870000  0.33444000  1.0
  H  H418  1  0.88074000  0.20031000  0.36836000  1.0
  H  H419  1  0.98990000  0.23289000  0.37078000  1.0
  H  H420  1  0.63550000  0.69805000  0.67726000  1.0
  H  H421  1  0.72236000  0.64461000  0.75082000  1.0
  H  H422  1  0.61932000  0.56783000  0.62657000  1.0
  H  H423  1  0.67714000  0.71915000  0.78369000  1.0
  H  H424  1  0.78326000  0.72527000  0.75420000  1.0
  H  H425  1  0.64676000  0.74139000  0.75236000  1.0
  H  H426  1  0.29938000  0.48892000  0.97390000  1.0
  H  H427  1  0.49716000  0.58322000  0.06597000  1.0
  H  H428  1  0.62498000  0.50585000  0.94490000  1.0
  H  H429  1  0.29802000  0.58288000  0.07519000  1.0
  H  H430  1  0.21800000  0.54122000  0.03769000  1.0
  H  H431  1  0.30806000  0.53286000  0.07058000  1.0
  H  H432  1  0.93666000  0.91118000  0.42406000  1.0
  H  H433  1  0.70434000  0.81544000  0.36179000  1.0
  H  H434  1  0.63234000  0.93520000  0.38429000  1.0
  H  H435  1  0.96190000  0.84419000  0.42021000  1.0
  H  H436  1  0.86500000  0.80382000  0.39365000  1.0
  H  H437  1  0.95530000  0.81766000  0.36493000  1.0
  H  H438  1  0.54928000  0.40538000  0.34143000  1.0
  H  H439  1  0.34438000  0.38255000  0.41905000  1.0
  H  H440  1  0.68972000  0.37565000  0.42789000  1.0
  H  H441  1  0.35684000  0.39961000  0.33004000  1.0
  H  H442  1  0.27374000  0.38105000  0.35624000  1.0
  H  H443  1  0.30842000  0.43469000  0.38136000  1.0
  H  H444  1  0.57124000  0.29373000  0.87598000  1.0
  H  H445  1  0.36248000  0.37700000  0.97315000  1.0
  H  H446  1  0.67660000  0.34686000  0.00047000  1.0
  H  H447  1  0.34070000  0.36193000  0.89878000  1.0
  H  H448  1  0.40956000  0.31777000  0.85927000  1.0
  H  H449  1  0.30936000  0.31151000  0.89055000  1.0
  H  H450  1  0.43266000  0.89431000  0.50670000  1.0
  H  H451  1  0.72274000  0.83722000  0.44603000  1.0
  H  H452  1  0.73506000  0.93944000  0.56938000  1.0
  H  H453  1  0.55180000  0.82587000  0.40689000  1.0
  H  H454  1  0.48194000  0.81150000  0.44003000  1.0
  H  H455  1  0.43160000  0.85245000  0.43298000  1.0
  H  H456  1  0.32442000  0.22566000  0.30443000  1.0
  H  H457  1  0.10836000  0.28079000  0.25600000  1.0
  H  H458  1  0.14704000  0.33429000  0.38617000  1.0
  H  H459  1  0.31616000  0.22793000  0.22286000  1.0
  H  H460  1  0.26810000  0.18791000  0.23205000  1.0
  H  H461  1  0.17742000  0.21070000  0.21193000  1.0
  H  H462  1  0.07462000  0.18947000  0.94686000  1.0
  H  H463  1  0.27888000  0.24905000  0.05318000  1.0
  H  H464  1  0.14976000  0.31777000  0.99985000  1.0
  H  H465  1  0.26518000  0.17407000  0.01377000  1.0
  H  H466  1  0.12008000  0.17475000  0.01980000  1.0
  H  H467  1  0.18022000  0.14922000  0.96930000  1.0
  H  H468  1  0.21252000  0.97252000  0.71713000  1.0
  H  H469  1  0.00610000  0.86597000  0.66688000  1.0
  H  H470  1  0.14496000  0.90619000  0.58822000  1.0
  H  H471  1  0.01238000  0.94170000  0.75018000  1.0
  H  H472  1  0.08860000  0.89585000  0.73736000  1.0
  H  H473  1  0.15612000  0.94452000  0.75962000  1.0
  H  H474  1  0.17868000  0.69370000  0.68069000  1.0
  H  H475  1  0.98166000  0.63638000  0.73117000  1.0
  H  H476  1  0.18524000  0.56209000  0.62776000  1.0
  H  H477  1  0.99890000  0.70914000  0.76731000  1.0
  H  H478  1  0.10212000  0.73300000  0.75284000  1.0
  H  H479  1  0.97388000  0.71978000  0.72629000  1.0
  H  H480  1  0.21370000  0.58096000  0.87868000  1.0
  H  H481  1  0.02652000  0.64819000  0.98916000  1.0
  H  H482  1  0.09960000  0.52109000  0.94324000  1.0
  H  H483  1  0.05762000  0.67621000  0.94347000  1.0
  H  H484  1  0.20288000  0.67299000  0.94635000  1.0
  H  H485  1  0.13492000  0.64811000  0.89728000  1.0
  H  H486  1  0.01742000  0.96192000  0.27088000  1.0
  H  H487  1  0.22358000  0.85613000  0.22078000  1.0
  H  H488  1  0.15934000  0.92330000  0.35061000  1.0
  H  H489  1  0.09452000  0.86958000  0.17681000  1.0
  H  H490  1  0.03248000  0.91919000  0.19810000  1.0
  H  H491  1  0.17736000  0.91445000  0.19191000  1.0
  H  H492  1  0.71476000  0.38662000  0.68776000  1.0
  H  H493  1  0.59006000  0.28354000  0.57736000  1.0
  H  H494  1  0.57088000  0.40459000  0.59375000  1.0
  H  H495  1  0.61082000  0.29874000  0.66407000  1.0
  H  H496  1  0.71352000  0.27451000  0.62501000  1.0
  H  H497  1  0.74806000  0.31771000  0.67382000  1.0
  H  H498  1  0.54650000  0.53165000  0.22983000  1.0
  H  H499  1  0.69020000  0.62479000  0.21043000  1.0
  H  H500  1  0.65016000  0.50161000  0.10952000  1.0
  H  H501  1  0.67502000  0.61676000  0.28608000  1.0
  H  H502  1  0.57100000  0.64151000  0.27199000  1.0
  H  H503  1  0.53556000  0.60163000  0.28244000  1.0
  H  H504  1  0.45692000  0.14328000  0.61241000  1.0
  H  H505  1  0.66096000  0.15442000  0.52640000  1.0
  H  H506  1  0.69570000  0.05056000  0.54435000  1.0
  H  H507  1  0.55780000  0.21865000  0.59795000  1.0
  H  H508  1  0.47770000  0.19158000  0.55190000  1.0
  H  H509  1  0.42736000  0.19796000  0.59945000  1.0
  H  H510  1  0.58054000  0.63691000  0.44329000  1.0
  H  H511  1  0.77734000  0.54966000  0.34317000  1.0
  H  H512  1  0.67386000  0.52381000  0.43685000  1.0
  H  H513  1  0.60534000  0.61955000  0.35620000  1.0
  H  H514  1  0.68504000  0.65668000  0.39889000  1.0
  H  H515  1  0.75126000  0.61796000  0.35360000  1.0
  H  H516  1  0.69746000  0.21578000  0.73944000  1.0
  H  H517  1  0.46820000  0.29514000  0.72811000  1.0
  H  H518  1  0.65554000  0.33977000  0.83869000  1.0
  H  H519  1  0.51302000  0.23056000  0.66936000  1.0
  H  H520  1  0.62536000  0.20115000  0.67073000  1.0
  H  H521  1  0.49560000  0.19741000  0.69076000  1.0
  H  H522  1  0.88878000  0.68765000  0.36583000  1.0
  H  H523  1  0.71698000  0.69522000  0.27144000  1.0
  H  H524  1  0.61126000  0.76588000  0.39715000  1.0
  H  H525  1  0.85536000  0.64521000  0.25297000  1.0
  H  H526  1  0.96358000  0.67274000  0.28798000  1.0
  H  H527  1  0.89678000  0.63091000  0.28973000  1.0
  H  H528  1  0.91390000  0.45633000  0.50892000  1.0
  H  H529  1  0.14412000  0.55150000  0.56346000  1.0
  H  H530  1  0.23754000  0.43587000  0.46325000  1.0
  H  H531  1  0.97104000  0.56392000  0.59358000  1.0
  H  H532  1  0.88326000  0.53916000  0.54963000  1.0
  H  H533  1  0.88938000  0.52147000  0.58566000  1.0
  H  H534  1  0.90556000  0.39218000  0.98958000  1.0
  H  H535  1  0.88668000  0.44213000  0.90987000  1.0
  H  H536  1  0.19368000  0.41821000  0.94668000  1.0
  H  H537  1  0.73962000  0.43285000  0.99237000  1.0
  H  H538  1  0.73100000  0.45337000  0.95844000  1.0
  H  H539  1  0.72734000  0.39857000  0.93774000  1.0
  H  H540  1  0.15164000  0.68705000  0.31024000  1.0
  H  H541  1  0.15626000  0.67304000  0.41631000  1.0
  H  H542  1  0.30108000  0.77825000  0.42142000  1.0
  H  H543  1  0.15718000  0.60905000  0.34241000  1.0
  H  H544  1  0.02948000  0.63190000  0.34163000  1.0
  H  H545  1  0.12702000  0.61837000  0.30108000  1.0
  H  H546  1  0.98536000  0.30275000  0.42886000  1.0
  H  H547  1  0.72250000  0.36509000  0.51244000  1.0
  H  H548  1  0.04586000  0.41060000  0.54397000  1.0
  H  H549  1  0.70480000  0.29281000  0.45560000  1.0
  H  H550  1  0.73882000  0.30377000  0.41487000  1.0
  H  H551  1  0.81502000  0.26715000  0.42211000  1.0
  H  H552  1  0.98398000  0.41731000  0.14939000  1.0
  H  H553  1  0.83738000  0.43674000  0.05762000  1.0
  H  H554  1  0.07236000  0.52144000  0.13991000  1.0
  H  H555  1  0.79422000  0.38986000  0.12325000  1.0
  H  H556  1  0.73922000  0.39604000  0.08259000  1.0
  H  H557  1  0.85526000  0.36335000  0.07269000  1.0
  H  H558  1  0.47850000  0.95627000  0.49124000  1.0
  H  H559  1  0.39020000  0.02516000  0.43437000  1.0
  H  H560  1  0.14578000  0.96571000  0.46642000  1.0
  H  H561  1  0.58318000  0.00006000  0.43052000  1.0
  H  H562  1  0.56550000  0.03198000  0.48423000  1.0
  H  H563  1  0.61928000  0.98117000  0.46506000  1.0
  O  O564  1  0.99372000  0.47711000  0.70703000  1.0
  O  O565  1  0.85330000  0.58518000  0.84493000  1.0
  O  O566  1  0.88862000  0.54496000  0.77735000  1.0
  O  O567  1  0.74778000  0.46280000  0.69977000  1.0
  O  O568  1  0.70182000  0.46029000  0.64154000  1.0
  O  O569  1  0.72956000  0.55932000  0.71692000  1.0
  O  O570  1  0.76924000  0.54253000  0.65228000  1.0
  O  O571  1  0.95182000  0.43649000  0.64062000  1.0
  O  O572  1  0.97300000  0.56283000  0.71126000  1.0
  O  O573  1  0.00554000  0.52285000  0.64349000  1.0
  O  O574  1  0.90984000  0.42680000  0.60350000  1.0
  O  O575  1  0.82136000  0.45853000  0.57822000  1.0
  O  O576  1  0.99322000  0.64310000  0.12229000  1.0
  O  O577  1  0.93338000  0.70164000  0.08553000  1.0
  O  O578  1  0.79136000  0.68314000  0.11124000  1.0
  O  O579  1  0.76402000  0.61382000  0.13692000  1.0
  O  O580  1  0.76944000  0.54630000  0.09386000  1.0
  O  O581  1  0.69034000  0.60022000  0.05268000  1.0
  O  O582  1  0.76066000  0.53831000  0.01025000  1.0
  O  O583  1  0.02158000  0.57723000  0.10445000  1.0
  O  O584  1  0.93154000  0.61737000  0.03084000  1.0
  O  O585  1  0.00514000  0.55543000  0.01252000  1.0
  O  O586  1  0.00634000  0.53798000  0.08810000  1.0
  O  O587  1  0.91254000  0.49063000  0.03905000  1.0
  O  O588  1  0.91992000  0.09529000  0.40639000  1.0
  O  O589  1  0.83692000  0.03718000  0.31762000  1.0
  O  O590  1  0.71724000  0.05063000  0.36828000  1.0
  O  O591  1  0.74248000  0.07992000  0.46090000  1.0
  O  O592  1  0.86874000  0.07423000  0.50064000  1.0
  O  O593  1  0.77024000  0.98813000  0.40167000  1.0
  O  O594  1  0.91454000  0.98432000  0.43700000  1.0
  O  O595  1  0.04190000  0.10209000  0.45361000  1.0
  O  O596  1  0.93034000  0.99628000  0.34705000  1.0
  O  O597  1  0.07168000  0.00263000  0.38695000  1.0
  O  O598  1  0.11312000  0.04099000  0.48177000  1.0
  O  O599  1  0.13214000  0.01622000  0.41675000  1.0
  O  O600  1  0.03124000  0.42889000  0.29413000  1.0
  O  O601  1  0.99018000  0.35770000  0.21795000  1.0
  O  O602  1  0.82938000  0.37759000  0.25220000  1.0
  O  O603  1  0.79484000  0.46311000  0.33225000  1.0
  O  O604  1  0.87852000  0.49392000  0.39324000  1.0
  O  O605  1  0.75552000  0.38254000  0.33142000  1.0
  O  O606  1  0.80880000  0.41926000  0.39730000  1.0
  O  O607  1  0.10966000  0.45247000  0.35613000  1.0
  O  O608  1  0.99468000  0.34939000  0.29920000  1.0
  O  O609  1  0.03990000  0.37856000  0.36603000  1.0
  O  O610  1  0.00066000  0.46934000  0.44190000  1.0
  O  O611  1  0.04386000  0.40556000  0.40754000  1.0
  O  O612  1  0.00774000  0.19565000  0.81412000  1.0
  O  O613  1  0.84132000  0.14399000  0.77972000  1.0
  O  O614  1  0.81126000  0.16735000  0.84703000  1.0
  O  O615  1  0.77082000  0.23332000  0.81662000  1.0
  O  O616  1  0.85088000  0.29344000  0.83390000  1.0
  O  O617  1  0.74472000  0.25764000  0.90474000  1.0
  O  O618  1  0.81646000  0.31901000  0.92071000  1.0
  O  O619  1  0.08586000  0.25714000  0.83534000  1.0
  O  O620  1  0.97950000  0.22282000  0.90928000  1.0
  O  O621  1  0.04592000  0.28567000  0.92965000  1.0
  O  O622  1  0.02258000  0.34613000  0.89516000  1.0
  O  O623  1  0.05308000  0.32366000  0.93574000  1.0
  O  O624  1  0.86114000  0.73263000  0.52041000  1.0
  O  O625  1  0.70978000  0.86392000  0.61097000  1.0
  O  O626  1  0.68188000  0.79708000  0.56240000  1.0
  O  O627  1  0.73960000  0.76481000  0.46607000  1.0
  O  O628  1  0.90152000  0.75179000  0.43488000  1.0
  O  O629  1  0.78952000  0.85426000  0.54053000  1.0
  O  O630  1  0.90214000  0.84472000  0.49040000  1.0
  O  O631  1  0.02792000  0.73663000  0.49879000  1.0
  O  O632  1  0.92650000  0.82814000  0.58725000  1.0
  O  O633  1  0.05906000  0.83585000  0.55066000  1.0
  O  O634  1  0.12456000  0.79082000  0.46272000  1.0
  O  O635  1  0.10196000  0.74515000  0.48012000  1.0
  O  O636  1  0.34640000  0.08561000  0.69480000  1.0
  O  O637  1  0.53448000  0.98702000  0.70212000  1.0
  O  O638  1  0.55492000  0.04690000  0.70147000  1.0
  O  O639  1  0.54162000  0.06971000  0.63143000  1.0
  O  O640  1  0.42452000  0.05180000  0.57930000  1.0
  O  O641  1  0.55402000  0.98051000  0.61141000  1.0
  O  O642  1  0.41904000  0.96275000  0.56574000  1.0
  O  O643  1  0.23552000  0.07789000  0.64397000  1.0
  O  O644  1  0.34312000  0.98942000  0.66514000  1.0
  O  O645  1  0.21358000  0.98416000  0.62023000  1.0
  O  O646  1  0.34382000  0.96158000  0.54400000  1.0
  O  O647  1  0.22012000  0.00141000  0.54616000  1.0
  O  O648  1  0.28772000  0.64815000  0.52524000  1.0
  O  O649  1  0.32062000  0.73781000  0.63934000  1.0
  O  O650  1  0.43482000  0.71369000  0.58458000  1.0
  O  O651  1  0.53316000  0.63223000  0.51125000  1.0
  O  O652  1  0.50588000  0.56444000  0.48646000  1.0
  O  O653  1  0.54226000  0.65730000  0.60760000  1.0
  O  O654  1  0.55530000  0.58894000  0.57884000  1.0
  O  O655  1  0.25266000  0.58348000  0.51050000  1.0
  O  O656  1  0.29386000  0.65704000  0.61294000  1.0
  O  O657  1  0.31634000  0.59102000  0.59518000  1.0
  O  O658  1  0.27206000  0.54590000  0.50467000  1.0
  O  O659  1  0.38730000  0.51666000  0.52483000  1.0
  O  O660  1  0.31142000  0.42438000  0.76597000  1.0
  O  O661  1  0.36220000  0.50157000  0.78354000  1.0
  O  O662  1  0.50856000  0.48143000  0.80551000  1.0
  O  O663  1  0.51014000  0.39247000  0.79867000  1.0
  O  O664  1  0.38858000  0.35966000  0.81677000  1.0
  O  O665  1  0.48218000  0.47237000  0.88390000  1.0
  O  O666  1  0.36048000  0.43908000  0.90184000  1.0
  O  O667  1  0.19170000  0.38992000  0.78339000  1.0
  O  O668  1  0.30282000  0.50594000  0.85574000  1.0
  O  O669  1  0.17998000  0.47236000  0.87185000  1.0
  O  O670  1  0.16090000  0.38715000  0.86741000  1.0
  O  O671  1  0.12978000  0.44697000  0.87722000  1.0
  O  O672  1  0.37174000  0.73919000  0.22380000  1.0
  O  O673  1  0.57346000  0.85161000  0.23903000  1.0
  O  O674  1  0.56890000  0.78376000  0.21906000  1.0
  O  O675  1  0.57620000  0.75174000  0.28267000  1.0
  O  O676  1  0.47890000  0.76586000  0.33864000  1.0
  O  O677  1  0.57244000  0.84138000  0.31052000  1.0
  O  O678  1  0.46722000  0.85425000  0.36443000  1.0
  O  O679  1  0.27384000  0.74404000  0.27636000  1.0
  O  O680  1  0.35342000  0.83675000  0.26427000  1.0
  O  O681  1  0.24804000  0.84267000  0.31628000  1.0
  O  O682  1  0.24482000  0.75327000  0.31195000  1.0
  O  O683  1  0.27154000  0.80232000  0.37364000  1.0
  O  O684  1  0.35742000  0.22586000  0.44353000  1.0
  O  O685  1  0.55128000  0.19067000  0.43482000  1.0
  O  O686  1  0.58140000  0.23037000  0.40625000  1.0
  O  O687  1  0.54358000  0.29205000  0.50550000  1.0
  O  O688  1  0.42448000  0.34313000  0.53993000  1.0
  O  O689  1  0.54652000  0.32506000  0.44185000  1.0
  O  O690  1  0.40870000  0.36881000  0.47410000  1.0
  O  O691  1  0.24610000  0.27356000  0.48949000  1.0
  O  O692  1  0.38522000  0.26222000  0.38488000  1.0
  O  O693  1  0.24874000  0.30266000  0.42215000  1.0
  O  O694  1  0.19994000  0.36330000  0.51578000  1.0
  O  O695  1  0.18680000  0.32314000  0.45025000  1.0
  O  O696  1  0.41770000  0.39095000  0.17528000  1.0
  O  O697  1  0.49854000  0.30735000  0.17526000  1.0
  O  O698  1  0.47144000  0.35678000  0.15917000  1.0
  O  O699  1  0.57452000  0.43796000  0.14898000  1.0
  O  O700  1  0.43660000  0.47220000  0.13910000  1.0
  O  O701  1  0.54398000  0.37174000  0.05731000  1.0
  O  O702  1  0.39668000  0.40202000  0.04932000  1.0
  O  O703  1  0.28280000  0.43052000  0.17357000  1.0
  O  O704  1  0.37770000  0.32252000  0.07514000  1.0
  O  O705  1  0.23552000  0.36123000  0.07684000  1.0
  O  O706  1  0.20826000  0.44250000  0.15814000  1.0
  O  O707  1  0.20460000  0.45216000  0.10634000  1.0
