# generated using pymatgen
data_CoH8(C5O2)2
_symmetry_space_group_name_H-M   'P 1'
_cell_length_a   15.30910000
_cell_length_b   28.92270000
_cell_length_c   28.93190000
_cell_angle_alpha   89.99900000
_cell_angle_beta   90.00000000
_cell_angle_gamma   90.00000000
_symmetry_Int_Tables_number   1
_chemical_formula_structural   CoH8(C5O2)2
_chemical_formula_sum   'Co24 H192 C240 O96'
_cell_volume   12810.48133608
_cell_formula_units_Z   24
loop_
 _symmetry_equiv_pos_site_id
 _symmetry_equiv_pos_as_xyz
  1  'x, y, z'
loop_
 _atom_site_type_symbol
 _atom_site_label
 _atom_site_symmetry_multiplicity
 _atom_site_fract_x
 _atom_site_fract_y
 _atom_site_fract_z
 _atom_site_occupancy
  C  C0  1  0.92644000  0.32648000  0.00410000  1.0
  C  C1  1  0.91666000  0.24020000  0.13375000  1.0
  C  C2  1  0.89660000  0.38553000  0.13474000  1.0
  C  C3  1  0.16018000  0.33006000  0.02098000  1.0
  C  C4  1  0.12350000  0.39866000  0.15036000  1.0
  C  C5  1  0.14560000  0.24372000  0.13065000  1.0
  C  C6  1  0.91526000  0.13351000  0.61570000  1.0
  C  C7  1  0.91002000  0.28365000  0.63353000  1.0
  C  C8  1  0.93426000  0.21689000  0.49701000  1.0
  C  C9  1  0.14444000  0.13457000  0.63385000  1.0
  C  C10  1  0.16860000  0.22048000  0.51323000  1.0
  C  C11  1  0.13836000  0.28845000  0.63557000  1.0
  C  C12  1  0.09974000  0.61463000  0.82710000  1.0
  C  C13  1  0.15144000  0.77817000  0.84529000  1.0
  C  C14  1  0.16070000  0.70361000  0.94491000  1.0
  C  C15  1  0.89000000  0.66011000  0.82183000  1.0
  C  C16  1  0.93592000  0.68246000  0.96499000  1.0
  C  C17  1  0.92438000  0.77979000  0.83359000  1.0
  C  C18  1  0.89814000  0.89237000  0.34774000  1.0
  C  C19  1  0.92200000  0.74452000  0.33718000  1.0
  C  C20  1  0.89982000  0.80772000  0.47030000  1.0
  C  C21  1  0.12744000  0.90598000  0.35816000  1.0
  C  C22  1  0.13428000  0.81253000  0.47366000  1.0
  C  C23  1  0.15140000  0.75696000  0.33896000  1.0
  C  C24  1  0.39052000  0.49403000  0.80305000  1.0
  C  C25  1  0.41906000  0.37606000  0.73266000  1.0
  C  C26  1  0.42566000  0.37726000  0.88835000  1.0
  C  C27  1  0.62252000  0.51985000  0.80393000  1.0
  C  C28  1  0.65544000  0.38120000  0.87708000  1.0
  C  C29  1  0.65350000  0.38756000  0.73482000  1.0
  C  C30  1  0.41272000  0.86559000  0.59448000  1.0
  C  C31  1  0.40550000  0.87971000  0.74374000  1.0
  C  C32  1  0.41798000  0.00102000  0.66846000  1.0
  C  C33  1  0.64058000  0.85618000  0.60234000  1.0
  C  C34  1  0.64906000  0.99771000  0.65993000  1.0
  C  C35  1  0.63956000  0.87414000  0.74670000  1.0
  C  C36  1  0.65406000  0.63113000  0.08735000  1.0
  C  C37  1  0.64684000  0.65522000  0.23499000  1.0
  C  C38  1  0.62778000  0.51789000  0.17447000  1.0
  C  C39  1  0.42442000  0.65163000  0.08072000  1.0
  C  C40  1  0.39688000  0.52984000  0.17265000  1.0
  C  C41  1  0.41490000  0.65880000  0.23406000  1.0
  C  C42  1  0.42670000  0.17345000  0.38048000  1.0
  C  C43  1  0.41984000  0.15796000  0.22935000  1.0
  C  C44  1  0.39816000  0.03789000  0.31301000  1.0
  C  C45  1  0.65738000  0.16678000  0.37184000  1.0
  C  C46  1  0.62586000  0.02434000  0.31650000  1.0
  C  C47  1  0.64980000  0.14351000  0.22891000  1.0
  C  C48  1  0.69336000  0.48007000  0.17135000  1.0
  C  C49  1  0.77232000  0.47931000  0.19696000  1.0
  C  C50  1  0.67862000  0.44534000  0.13786000  1.0
  C  C51  1  0.74184000  0.41223000  0.12716000  1.0
  C  C52  1  0.72354000  0.37761000  0.08919000  1.0
  C  C53  1  0.82246000  0.41369000  0.15040000  1.0
  C  C54  1  0.79360000  0.51530000  0.23308000  1.0
  C  C55  1  0.83528000  0.44545000  0.18651000  1.0
  C  C56  1  0.86582000  0.20752000  0.46184000  1.0
  C  C57  1  0.81208000  0.24178000  0.44131000  1.0
  C  C58  1  0.85532000  0.16104000  0.44837000  1.0
  C  C59  1  0.79208000  0.14764000  0.41646000  1.0
  C  C60  1  0.78664000  0.09730000  0.40279000  1.0
  C  C61  1  0.73386000  0.18109000  0.39904000  1.0
  C  C62  1  0.82276000  0.29249000  0.45198000  1.0
  C  C63  1  0.74562000  0.22789000  0.41052000  1.0
  C  C64  1  0.68062000  0.56120000  0.80557000  1.0
  C  C65  1  0.68720000  0.58886000  0.84579000  1.0
  C  C66  1  0.73326000  0.57206000  0.76724000  1.0
  C  C67  1  0.79784000  0.60697000  0.76949000  1.0
  C  C68  1  0.85524000  0.61472000  0.72780000  1.0
  C  C69  1  0.81072000  0.63136000  0.81164000  1.0
  C  C70  1  0.62882000  0.58145000  0.88727000  1.0
  C  C71  1  0.75230000  0.62299000  0.84837000  1.0
  C  C72  1  0.82948000  0.80628000  0.50502000  1.0
  C  C73  1  0.74200000  0.81371000  0.49152000  1.0
  C  C74  1  0.85188000  0.80822000  0.55209000  1.0
  C  C75  1  0.79016000  0.82185000  0.58564000  1.0
  C  C76  1  0.81852000  0.82727000  0.63534000  1.0
  C  C77  1  0.70470000  0.83386000  0.57122000  1.0
  C  C78  1  0.71376000  0.81053000  0.44163000  1.0
  C  C79  1  0.68108000  0.82812000  0.52465000  1.0
  C  C80  1  0.30392000  0.51699000  0.80658000  1.0
  C  C81  1  0.25240000  0.51498000  0.84738000  1.0
  C  C82  1  0.27274000  0.54233000  0.76869000  1.0
  C  C83  1  0.19774000  0.57002000  0.77238000  1.0
  C  C84  1  0.16834000  0.59660000  0.73023000  1.0
  C  C85  1  0.15566000  0.57426000  0.81594000  1.0
  C  C86  1  0.27418000  0.48314000  0.88698000  1.0
  C  C87  1  0.17922000  0.54395000  0.85158000  1.0
  C  C88  1  0.21206000  0.81945000  0.50228000  1.0
  C  C89  1  0.22348000  0.79724000  0.54521000  1.0
  C  C90  1  0.27092000  0.85362000  0.48798000  1.0
  C  C91  1  0.34006000  0.86758000  0.51633000  1.0
  C  C92  1  0.40210000  0.90410000  0.49843000  1.0
  C  C93  1  0.34804000  0.84797000  0.56101000  1.0
  C  C94  1  0.15968000  0.76116000  0.56184000  1.0
  C  C95  1  0.29172000  0.81188000  0.57431000  1.0
  C  C96  1  0.32598000  0.49591000  0.17460000  1.0
  C  C97  1  0.34276000  0.44811000  0.18030000  1.0
  C  C98  1  0.24046000  0.51164000  0.16863000  1.0
  C  C99  1  0.17072000  0.48051000  0.16615000  1.0
  C  C100  1  0.07978000  0.49975000  0.15973000  1.0
  C  C101  1  0.18834000  0.43232000  0.16707000  1.0
  C  C102  1  0.43438000  0.42971000  0.18620000  1.0
  C  C103  1  0.27326000  0.41675000  0.17633000  1.0
  C  C104  1  0.24414000  0.21982000  0.48156000  1.0
  C  C105  1  0.32406000  0.19942000  0.49530000  1.0
  C  C106  1  0.23188000  0.23257000  0.43509000  1.0
  C  C107  1  0.29394000  0.22086000  0.40115000  1.0
  C  C108  1  0.27528000  0.23120000  0.35098000  1.0
  C  C109  1  0.36868000  0.19554000  0.41442000  1.0
  C  C110  1  0.34360000  0.18768000  0.54516000  1.0
  C  C111  1  0.38444000  0.18658000  0.46132000  1.0
  C  C112  1  0.21208000  0.10052000  0.64884000  1.0
  C  C113  1  0.28498000  0.11161000  0.67708000  1.0
  C  C114  1  0.20596000  0.05557000  0.63021000  1.0
  C  C115  1  0.27116000  0.02245000  0.63702000  1.0
  C  C116  1  0.26256000  0.97633000  0.61295000  1.0
  C  C117  1  0.34490000  0.03394000  0.66380000  1.0
  C  C118  1  0.29716000  0.15921000  0.69747000  1.0
  C  C119  1  0.35002000  0.07775000  0.68468000  1.0
  C  C120  1  0.35974000  0.66721000  0.04531000  1.0
  C  C121  1  0.33950000  0.71420000  0.03628000  1.0
  C  C122  1  0.31900000  0.63287000  0.01853000  1.0
  C  C123  1  0.25710000  0.64357000  0.98439000  1.0
  C  C124  1  0.21656000  0.60403000  0.95789000  1.0
  C  C125  1  0.23356000  0.69044000  0.97668000  1.0
  C  C126  1  0.38480000  0.75320000  0.06124000  1.0
  C  C127  1  0.27534000  0.72504000  0.00288000  1.0
  C  C128  1  0.32294000  0.00670000  0.32078000  1.0
  C  C129  1  0.30044000  0.97066000  0.28997000  1.0
  C  C130  1  0.27780000  0.01092000  0.36285000  1.0
  C  C131  1  0.21192000  0.97974000  0.37559000  1.0
  C  C132  1  0.16550000  0.98728000  0.42110000  1.0
  C  C133  1  0.19204000  0.94226000  0.34578000  1.0
  C  C134  1  0.34742000  0.96392000  0.24456000  1.0
  C  C135  1  0.23496000  0.93908000  0.30284000  1.0
  C  C136  1  0.23574000  0.33621000  0.98953000  1.0
  C  C137  1  0.30998000  0.36247000  0.00257000  1.0
  C  C138  1  0.22996000  0.31896000  0.94416000  1.0
  C  C139  1  0.29266000  0.33035000  0.91054000  1.0
  C  C140  1  0.28054000  0.31348000  0.86156000  1.0
  C  C141  1  0.36300000  0.35951000  0.92283000  1.0
  C  C142  1  0.32402000  0.37933000  0.05150000  1.0
  C  C143  1  0.37136000  0.37469000  0.96870000  1.0
  C  C144  1  0.82142000  0.92069000  0.33623000  1.0
  C  C145  1  0.80654000  0.93886000  0.29158000  1.0
  C  C146  1  0.76616000  0.93315000  0.37283000  1.0
  C  C147  1  0.69712000  0.96405000  0.36640000  1.0
  C  C148  1  0.63760000  0.97425000  0.40683000  1.0
  C  C149  1  0.68686000  0.98549000  0.32281000  1.0
  C  C150  1  0.86466000  0.92649000  0.25130000  1.0
  C  C151  1  0.73916000  0.97135000  0.28544000  1.0
  C  C152  1  0.72986000  0.36667000  0.90578000  1.0
  C  C153  1  0.78654000  0.39953000  0.92568000  1.0
  C  C154  1  0.74218000  0.31938000  0.91504000  1.0
  C  C155  1  0.80746000  0.30419000  0.94573000  1.0
  C  C156  1  0.81880000  0.25300000  0.95346000  1.0
  C  C157  1  0.85912000  0.33754000  0.96890000  1.0
  C  C158  1  0.78246000  0.45048000  0.91397000  1.0
  C  C159  1  0.84802000  0.38470000  0.95793000  1.0
  C  C160  1  0.84826000  0.09842000  0.62712000  1.0
  C  C161  1  0.84788000  0.05429000  0.60608000  1.0
  C  C162  1  0.78574000  0.10872000  0.66112000  1.0
  C  C163  1  0.72014000  0.07681000  0.67334000  1.0
  C  C164  1  0.65184000  0.09134000  0.70812000  1.0
  C  C165  1  0.71884000  0.03273000  0.65176000  1.0
  C  C166  1  0.91538000  0.04032000  0.57057000  1.0
  C  C167  1  0.78322000  0.02229000  0.61856000  1.0
  C  C168  1  0.86318000  0.66716000  0.99501000  1.0
  C  C169  1  0.78008000  0.68877000  0.99188000  1.0
  C  C170  1  0.87536000  0.63080000  0.02664000  1.0
  C  C171  1  0.80804000  0.61755000  0.05725000  1.0
  C  C172  1  0.82420000  0.57924000  0.09169000  1.0
  C  C173  1  0.72702000  0.64117000  0.05554000  1.0
  C  C174  1  0.75902000  0.72527000  0.95607000  1.0
  C  C175  1  0.71432000  0.67625000  0.02295000  1.0
  C  C176  1  0.72488000  0.15660000  0.20031000  1.0
  C  C177  1  0.80802000  0.16241000  0.22050000  1.0
  C  C178  1  0.70932000  0.17237000  0.15517000  1.0
  C  C179  1  0.77374000  0.19691000  0.13074000  1.0
  C  C180  1  0.75390000  0.21520000  0.08312000  1.0
  C  C181  1  0.85398000  0.20659000  0.15272000  1.0
  C  C182  1  0.82718000  0.14633000  0.26910000  1.0
  C  C183  1  0.87120000  0.18820000  0.19672000  1.0
  C  C184  1  0.84722000  0.31427000  0.65759000  1.0
  C  C185  1  0.78166000  0.33960000  0.63415000  1.0
  C  C186  1  0.85436000  0.31811000  0.70580000  1.0
  C  C187  1  0.79680000  0.34577000  0.73138000  1.0
  C  C188  1  0.80736000  0.34774000  0.78318000  1.0
  C  C189  1  0.72790000  0.36878000  0.70840000  1.0
  C  C190  1  0.77112000  0.33626000  0.58245000  1.0
  C  C191  1  0.72246000  0.36660000  0.65998000  1.0
  C  C192  1  0.85338000  0.80856000  0.81492000  1.0
  C  C193  1  0.86874000  0.84392000  0.78210000  1.0
  C  C194  1  0.76772000  0.79896000  0.82920000  1.0
  C  C195  1  0.69632000  0.82192000  0.80942000  1.0
  C  C196  1  0.60522000  0.80923000  0.82487000  1.0
  C  C197  1  0.71148000  0.85489000  0.77423000  1.0
  C  C198  1  0.95962000  0.85659000  0.76653000  1.0
  C  C199  1  0.79724000  0.86659000  0.76199000  1.0
  C  C200  1  0.71810000  0.67455000  0.26332000  1.0
  C  C201  1  0.70468000  0.68917000  0.30949000  1.0
  C  C202  1  0.80094000  0.67913000  0.24318000  1.0
  C  C203  1  0.87084000  0.69864000  0.26770000  1.0
  C  C204  1  0.95908000  0.70123000  0.24437000  1.0
  C  C205  1  0.85616000  0.71596000  0.31293000  1.0
  C  C206  1  0.61656000  0.68530000  0.33275000  1.0
  C  C207  1  0.77438000  0.70927000  0.33385000  1.0
  C  C208  1  0.33258000  0.86443000  0.77363000  1.0
  C  C209  1  0.25088000  0.85298000  0.75388000  1.0
  C  C210  1  0.34820000  0.85409000  0.82050000  1.0
  C  C211  1  0.28712000  0.82850000  0.84661000  1.0
  C  C212  1  0.30902000  0.81401000  0.89532000  1.0
  C  C213  1  0.21032000  0.81270000  0.82474000  1.0
  C  C214  1  0.22696000  0.86617000  0.70502000  1.0
  C  C215  1  0.19230000  0.82605000  0.77921000  1.0
  C  C216  1  0.34520000  0.68265000  0.26042000  1.0
  C  C217  1  0.28998000  0.71560000  0.23918000  1.0
  C  C218  1  0.33522000  0.67320000  0.30782000  1.0
  C  C219  1  0.27358000  0.69721000  0.33490000  1.0
  C  C220  1  0.26756000  0.68686000  0.38594000  1.0
  C  C221  1  0.21954000  0.73078000  0.31365000  1.0
  C  C222  1  0.29438000  0.72571000  0.18806000  1.0
  C  C223  1  0.22890000  0.73952000  0.26613000  1.0
  C  C224  1  0.35648000  0.17725000  0.19696000  1.0
  C  C225  1  0.36680000  0.22249000  0.17942000  1.0
  C  C226  1  0.28170000  0.15137000  0.18620000  1.0
  C  C227  1  0.21318000  0.17125000  0.16095000  1.0
  C  C228  1  0.12962000  0.14451000  0.15384000  1.0
  C  C229  1  0.22094000  0.21769000  0.14673000  1.0
  C  C230  1  0.44782000  0.25079000  0.18878000  1.0
  C  C231  1  0.29796000  0.24244000  0.15481000  1.0
  C  C232  1  0.34684000  0.35807000  0.70461000  1.0
  C  C233  1  0.35980000  0.34006000  0.65974000  1.0
  C  C234  1  0.26354000  0.35717000  0.72464000  1.0
  C  C235  1  0.19254000  0.33744000  0.70147000  1.0
  C  C236  1  0.10404000  0.33798000  0.72461000  1.0
  C  C237  1  0.20646000  0.31661000  0.65783000  1.0
  C  C238  1  0.44862000  0.34042000  0.63699000  1.0
  C  C239  1  0.28888000  0.31964000  0.63668000  1.0
  Co  Co240  1  0.02854000  0.37604000  0.06926000  1.0
  Co  Co241  1  0.02634000  0.31687000  0.15889000  1.0
  Co  Co242  1  0.02964000  0.26688000  0.05744000  1.0
  Co  Co243  1  0.04540000  0.16202000  0.55467000  1.0
  Co  Co244  1  0.03164000  0.27215000  0.55724000  1.0
  Co  Co245  1  0.02618000  0.20777000  0.65068000  1.0
  Co  Co246  1  0.02484000  0.67461000  0.88628000  1.0
  Co  Co247  1  0.02104000  0.75547000  0.91478000  1.0
  Co  Co248  1  0.04436000  0.70627000  0.80807000  1.0
  Co  Co249  1  0.01178000  0.86986000  0.42402000  1.0
  Co  Co250  1  0.02796000  0.75952000  0.41515000  1.0
  Co  Co251  1  0.02710000  0.82784000  0.32530000  1.0
  Co  Co252  1  0.52906000  0.45480000  0.86004000  1.0
  Co  Co253  1  0.53192000  0.35928000  0.80800000  1.0
  Co  Co254  1  0.52536000  0.45554000  0.74738000  1.0
  Co  Co255  1  0.52922000  0.93815000  0.61434000  1.0
  Co  Co256  1  0.53410000  0.95049000  0.72402000  1.0
  Co  Co257  1  0.52020000  0.84807000  0.67403000  1.0
  Co  Co258  1  0.51876000  0.57133000  0.11360000  1.0
  Co  Co259  1  0.52480000  0.58054000  0.22469000  1.0
  Co  Co260  1  0.53672000  0.66983000  0.15623000  1.0
  Co  Co261  1  0.52772000  0.09326000  0.36298000  1.0
  Co  Co262  1  0.52204000  0.07749000  0.25329000  1.0
  Co  Co263  1  0.53752000  0.18214000  0.30033000  1.0
  H  H264  1  0.89690000  0.44547000  0.20492000  1.0
  H  H265  1  0.75088000  0.39027000  0.05599000  1.0
  H  H266  1  0.65228000  0.37203000  0.08456000  1.0
  H  H267  1  0.75262000  0.34343000  0.09744000  1.0
  H  H268  1  0.61822000  0.44465000  0.11838000  1.0
  H  H269  1  0.74566000  0.51358000  0.26179000  1.0
  H  H270  1  0.79290000  0.55036000  0.21744000  1.0
  H  H271  1  0.85942000  0.51005000  0.24836000  1.0
  H  H272  1  0.70132000  0.25348000  0.39635000  1.0
  H  H273  1  0.73356000  0.08014000  0.42238000  1.0
  H  H274  1  0.84850000  0.07862000  0.41014000  1.0
  H  H275  1  0.77464000  0.09391000  0.36513000  1.0
  H  H276  1  0.89616000  0.13430000  0.46327000  1.0
  H  H277  1  0.79840000  0.29989000  0.48726000  1.0
  H  H278  1  0.78570000  0.31452000  0.42739000  1.0
  H  H279  1  0.89244000  0.30275000  0.44926000  1.0
  H  H280  1  0.75936000  0.64200000  0.88042000  1.0
  H  H281  1  0.85712000  0.65201000  0.71880000  1.0
  H  H282  1  0.83048000  0.59618000  0.69683000  1.0
  H  H283  1  0.92232000  0.60200000  0.73485000  1.0
  H  H284  1  0.72682000  0.55163000  0.73601000  1.0
  H  H285  1  0.65424000  0.55252000  0.90859000  1.0
  H  H286  1  0.56086000  0.57367000  0.87636000  1.0
  H  H287  1  0.62568000  0.61282000  0.90937000  1.0
  H  H288  1  0.61512000  0.83637000  0.51370000  1.0
  H  H289  1  0.80818000  0.86346000  0.64692000  1.0
  H  H290  1  0.88878000  0.81898000  0.64018000  1.0
  H  H291  1  0.78048000  0.80362000  0.65785000  1.0
  H  H292  1  0.91926000  0.80260000  0.56217000  1.0
  H  H293  1  0.75418000  0.78529000  0.42228000  1.0
  H  H294  1  0.71948000  0.84482000  0.42489000  1.0
  H  H295  1  0.64484000  0.79882000  0.43898000  1.0
  H  H296  1  0.14366000  0.54476000  0.88395000  1.0
  H  H297  1  0.09634000  0.60118000  0.73011000  1.0
  H  H298  1  0.18526000  0.57776000  0.69798000  1.0
  H  H299  1  0.20072000  0.63092000  0.72922000  1.0
  H  H300  1  0.30900000  0.54218000  0.73649000  1.0
  H  H301  1  0.33248000  0.49586000  0.90586000  1.0
  H  H302  1  0.28542000  0.44771000  0.87364000  1.0
  H  H303  1  0.21978000  0.48063000  0.91227000  1.0
  H  H304  1  0.29876000  0.79639000  0.60820000  1.0
  H  H305  1  0.38390000  0.93847000  0.51248000  1.0
  H  H306  1  0.40048000  0.90633000  0.46010000  1.0
  H  H307  1  0.47050000  0.89589000  0.50818000  1.0
  H  H308  1  0.26174000  0.87020000  0.45469000  1.0
  H  H309  1  0.15014000  0.73422000  0.53499000  1.0
  H  H310  1  0.09580000  0.77759000  0.56957000  1.0
  H  H311  1  0.18312000  0.74357000  0.59364000  1.0
  H  H312  1  0.28652000  0.37993000  0.17713000  1.0
  H  H313  1  0.06446000  0.50281000  0.12236000  1.0
  H  H314  1  0.07354000  0.53456000  0.17564000  1.0
  H  H315  1  0.03058000  0.47734000  0.17669000  1.0
  H  H316  1  0.22818000  0.54844000  0.16525000  1.0
  H  H317  1  0.46462000  0.44397000  0.21799000  1.0
  H  H318  1  0.47454000  0.43926000  0.15578000  1.0
  H  H319  1  0.43570000  0.39142000  0.18927000  1.0
  H  H320  1  0.44302000  0.16799000  0.47132000  1.0
  H  H321  1  0.33090000  0.25018000  0.33530000  1.0
  H  H322  1  0.21612000  0.25301000  0.34670000  1.0
  H  H323  1  0.26484000  0.19848000  0.33169000  1.0
  H  H324  1  0.17094000  0.24858000  0.42469000  1.0
  H  H325  1  0.31776000  0.15282000  0.55357000  1.0
  H  H326  1  0.31424000  0.21347000  0.56899000  1.0
  H  H327  1  0.41508000  0.18773000  0.55181000  1.0
  H  H328  1  0.40686000  0.08614000  0.70539000  1.0
  H  H329  1  0.29884000  0.97718000  0.57977000  1.0
  H  H330  1  0.19322000  0.96782000  0.60546000  1.0
  H  H331  1  0.28838000  0.94798000  0.63470000  1.0
  H  H332  1  0.15050000  0.04610000  0.60895000  1.0
  H  H333  1  0.24374000  0.16685000  0.72225000  1.0
  H  H334  1  0.29766000  0.18564000  0.66963000  1.0
  H  H335  1  0.35986000  0.16236000  0.71654000  1.0
  H  H336  1  0.25820000  0.76093000  0.99705000  1.0
  H  H337  1  0.14440000  0.60451000  0.96153000  1.0
  H  H338  1  0.23914000  0.56971000  0.97033000  1.0
  H  H339  1  0.23532000  0.60663000  0.92097000  1.0
  H  H340  1  0.33460000  0.59685000  0.02476000  1.0
  H  H341  1  0.45636000  0.74712000  0.06265000  1.0
  H  H342  1  0.35858000  0.75642000  0.09676000  1.0
  H  H343  1  0.37496000  0.78684000  0.04344000  1.0
  H  H344  1  0.21930000  0.91080000  0.27970000  1.0
  H  H345  1  0.09378000  0.98360000  0.41676000  1.0
  H  H346  1  0.17696000  0.02258000  0.43498000  1.0
  H  H347  1  0.18942000  0.96214000  0.44719000  1.0
  H  H348  1  0.29460000  0.03883000  0.38627000  1.0
  H  H349  1  0.41908000  0.96230000  0.25022000  1.0
  H  H350  1  0.33192000  0.99284000  0.22073000  1.0
  H  H351  1  0.32796000  0.93126000  0.22717000  1.0
  H  H352  1  0.42620000  0.39649000  0.97812000  1.0
  H  H353  1  0.28140000  0.34315000  0.83727000  1.0
  H  H354  1  0.21732000  0.29525000  0.85678000  1.0
  H  H355  1  0.33356000  0.28902000  0.85229000  1.0
  H  H356  1  0.17382000  0.29843000  0.93416000  1.0
  H  H357  1  0.39416000  0.38637000  0.05845000  1.0
  H  H358  1  0.30296000  0.35288000  0.07700000  1.0
  H  H359  1  0.28704000  0.41181000  0.05737000  1.0
  H  H360  1  0.73002000  0.98732000  0.25188000  1.0
  H  H361  1  0.66000000  0.00574000  0.42517000  1.0
  H  H362  1  0.63700000  0.94519000  0.43196000  1.0
  H  H363  1  0.56912000  0.97910000  0.39518000  1.0
  H  H364  1  0.77774000  0.91907000  0.40702000  1.0
  H  H365  1  0.85720000  0.88930000  0.24274000  1.0
  H  H366  1  0.93402000  0.93370000  0.25990000  1.0
  H  H367  1  0.84822000  0.94668000  0.21981000  1.0
  H  H368  1  0.88750000  0.41085000  0.97477000  1.0
  H  H369  1  0.88872000  0.24320000  0.95080000  1.0
  H  H370  1  0.78300000  0.23223000  0.92731000  1.0
  H  H371  1  0.79322000  0.24355000  0.98797000  1.0
  H  H372  1  0.69952000  0.29417000  0.89893000  1.0
  H  H373  1  0.72950000  0.46747000  0.93391000  1.0
  H  H374  1  0.77134000  0.45556000  0.87640000  1.0
  H  H375  1  0.84474000  0.46835000  0.92231000  1.0
  H  H376  1  0.78332000  0.98864000  0.60204000  1.0
  H  H377  1  0.58534000  0.08636000  0.69366000  1.0
  H  H378  1  0.65768000  0.12845000  0.71753000  1.0
  H  H379  1  0.65908000  0.07092000  0.74036000  1.0
  H  H380  1  0.78692000  0.14246000  0.67747000  1.0
  H  H381  1  0.90186000  0.05784000  0.53719000  1.0
  H  H382  1  0.91518000  0.00244000  0.56421000  1.0
  H  H383  1  0.98202000  0.04946000  0.58257000  1.0
  H  H384  1  0.65158000  0.69361000  0.02118000  1.0
  H  H385  1  0.89436000  0.56957000  0.09344000  1.0
  H  H386  1  0.78656000  0.54799000  0.08175000  1.0
  H  H387  1  0.80414000  0.59022000  0.12691000  1.0
  H  H388  1  0.93818000  0.61355000  0.02823000  1.0
  H  H389  1  0.78688000  0.71595000  0.92194000  1.0
  H  H390  1  0.78498000  0.75931000  0.96722000  1.0
  H  H391  1  0.68746000  0.72898000  0.95080000  1.0
  H  H392  1  0.93312000  0.19561000  0.21337000  1.0
  H  H393  1  0.75856000  0.25350000  0.08271000  1.0
  H  H394  1  0.68732000  0.20551000  0.07134000  1.0
  H  H395  1  0.80134000  0.20060000  0.05809000  1.0
  H  H396  1  0.64508000  0.16775000  0.14007000  1.0
  H  H397  1  0.79456000  0.11285000  0.27646000  1.0
  H  H398  1  0.80414000  0.17259000  0.29424000  1.0
  H  H399  1  0.89834000  0.14101000  0.27441000  1.0
  H  H400  1  0.66904000  0.38400000  0.64257000  1.0
  H  H401  1  0.78614000  0.38171000  0.79709000  1.0
  H  H402  1  0.87684000  0.34323000  0.79332000  1.0
  H  H403  1  0.76870000  0.31968000  0.79942000  1.0
  H  H404  1  0.90540000  0.29930000  0.72376000  1.0
  H  H405  1  0.76770000  0.29944000  0.57177000  1.0
  H  H406  1  0.82718000  0.35312000  0.56492000  1.0
  H  H407  1  0.71036000  0.35339000  0.57029000  1.0
  H  H408  1  0.80836000  0.89213000  0.73519000  1.0
  H  H409  1  0.56328000  0.84044000  0.82684000  1.0
  H  H410  1  0.60546000  0.79330000  0.85982000  1.0
  H  H411  1  0.57598000  0.78417000  0.80029000  1.0
  H  H412  1  0.75622000  0.77217000  0.85470000  1.0
  H  H413  1  0.98246000  0.83140000  0.74025000  1.0
  H  H414  1  0.00540000  0.85694000  0.79628000  1.0
  H  H415  1  0.96154000  0.89165000  0.75086000  1.0
  H  H416  1  0.76356000  0.72173000  0.36868000  1.0
  H  H417  1  0.96822000  0.73581000  0.22847000  1.0
  H  H418  1  0.96542000  0.67480000  0.21670000  1.0
  H  H419  1  0.01252000  0.69454000  0.26945000  1.0
  H  H420  1  0.81126000  0.66711000  0.20809000  1.0
  H  H421  1  0.60278000  0.64864000  0.34141000  1.0
  H  H422  1  0.56422000  0.69871000  0.30980000  1.0
  H  H423  1  0.61368000  0.70562000  0.36530000  1.0
  H  H424  1  0.13328000  0.81378000  0.76259000  1.0
  H  H425  1  0.25250000  0.82005000  0.91858000  1.0
  H  H426  1  0.36516000  0.83388000  0.90936000  1.0
  H  H427  1  0.32598000  0.77670000  0.89602000  1.0
  H  H428  1  0.41032000  0.86330000  0.83586000  1.0
  H  H429  1  0.25280000  0.84019000  0.68036000  1.0
  H  H430  1  0.25354000  0.90074000  0.69645000  1.0
  H  H431  1  0.15496000  0.86819000  0.70051000  1.0
  H  H432  1  0.18674000  0.76467000  0.24955000  1.0
  H  H433  1  0.26542000  0.71942000  0.40623000  1.0
  H  H434  1  0.32492000  0.66688000  0.39837000  1.0
  H  H435  1  0.20800000  0.66623000  0.39315000  1.0
  H  H436  1  0.37740000  0.64784000  0.32405000  1.0
  H  H437  1  0.29654000  0.69303000  0.16801000  1.0
  H  H438  1  0.35310000  0.74684000  0.18045000  1.0
  H  H439  1  0.23626000  0.74519000  0.17581000  1.0
  H  H440  1  0.30270000  0.27818000  0.14364000  1.0
  H  H441  1  0.07936000  0.15660000  0.17870000  1.0
  H  H442  1  0.13956000  0.10682000  0.15904000  1.0
  H  H443  1  0.10474000  0.14943000  0.11813000  1.0
  H  H444  1  0.27486000  0.11658000  0.19970000  1.0
  H  H445  1  0.50742000  0.22949000  0.18386000  1.0
  H  H446  1  0.44634000  0.26427000  0.22468000  1.0
  H  H447  1  0.45304000  0.28069000  0.16482000  1.0
  H  H448  1  0.29892000  0.30403000  0.60303000  1.0
  H  H449  1  0.05146000  0.34409000  0.69891000  1.0
  H  H450  1  0.09924000  0.36614000  0.75061000  1.0
  H  H451  1  0.09236000  0.30462000  0.74251000  1.0
  H  H452  1  0.25388000  0.37201000  0.75867000  1.0
  H  H453  1  0.49852000  0.32553000  0.66054000  1.0
  H  H454  1  0.46740000  0.37639000  0.62805000  1.0
  H  H455  1  0.44956000  0.31970000  0.60466000  1.0
  O  O456  1  0.13982000  0.36478000  0.04815000  1.0
  O  O457  1  0.12154000  0.35624000  0.16588000  1.0
  O  O458  1  0.12676000  0.24310000  0.08649000  1.0
  O  O459  1  0.93078000  0.28661000  0.02530000  1.0
  O  O460  1  0.93256000  0.27677000  0.15930000  1.0
  O  O461  1  0.91744000  0.38727000  0.09072000  1.0
  O  O462  1  0.98368000  0.35860000  0.01273000  1.0
  O  O463  1  0.94688000  0.36570000  0.16597000  1.0
  O  O464  1  0.95632000  0.23091000  0.09447000  1.0
  O  O465  1  0.10656000  0.29465000  0.01469000  1.0
  O  O466  1  0.10392000  0.26784000  0.16215000  1.0
  O  O467  1  0.07376000  0.41163000  0.11638000  1.0
  O  O468  1  0.09912000  0.12386000  0.59720000  1.0
  O  O469  1  0.11004000  0.25382000  0.51060000  1.0
  O  O470  1  0.09364000  0.26012000  0.66223000  1.0
  O  O471  1  0.95586000  0.15447000  0.65009000  1.0
  O  O472  1  0.95558000  0.30063000  0.59893000  1.0
  O  O473  1  0.99560000  0.18574000  0.50128000  1.0
  O  O474  1  0.93788000  0.13947000  0.57233000  1.0
  O  O475  1  0.93518000  0.25447000  0.52227000  1.0
  O  O476  1  0.92462000  0.24273000  0.65181000  1.0
  O  O477  1  0.12804000  0.17263000  0.65681000  1.0
  O  O478  1  0.12664000  0.29252000  0.59079000  1.0
  O  O479  1  0.15406000  0.18264000  0.53685000  1.0
  O  O480  1  0.91048000  0.66781000  0.86506000  1.0
  O  O481  1  0.94252000  0.72680000  0.95524000  1.0
  O  O482  1  0.97916000  0.76076000  0.80398000  1.0
  O  O483  1  0.11170000  0.65294000  0.80365000  1.0
  O  O484  1  0.09748000  0.79095000  0.87853000  1.0
  O  O485  1  0.13778000  0.67652000  0.91065000  1.0
  O  O486  1  0.05218000  0.61608000  0.86488000  1.0
  O  O487  1  0.11302000  0.74015000  0.95357000  1.0
  O  O488  1  0.14460000  0.73914000  0.82223000  1.0
  O  O489  1  0.94624000  0.67265000  0.79025000  1.0
  O  O490  1  0.92686000  0.77325000  0.87860000  1.0
  O  O491  1  0.98204000  0.65244000  0.94143000  1.0
  O  O492  1  0.11280000  0.89647000  0.40167000  1.0
  O  O493  1  0.12662000  0.77520000  0.44841000  1.0
  O  O494  1  0.13480000  0.79916000  0.32481000  1.0
  O  O495  1  0.91988000  0.85695000  0.32208000  1.0
  O  O496  1  0.92996000  0.74133000  0.38230000  1.0
  O  O497  1  0.90950000  0.84695000  0.44845000  1.0
  O  O498  1  0.94358000  0.90493000  0.38405000  1.0
  O  O499  1  0.95524000  0.77316000  0.46593000  1.0
  O  O500  1  0.97052000  0.77225000  0.31190000  1.0
  O  O501  1  0.08510000  0.88482000  0.32476000  1.0
  O  O502  1  0.10170000  0.73533000  0.36924000  1.0
  O  O503  1  0.07736000  0.84639000  0.47288000  1.0
  O  O504  1  0.61896000  0.49315000  0.84040000  1.0
  O  O505  1  0.63208000  0.35470000  0.84249000  1.0
  O  O506  1  0.63390000  0.43182000  0.73184000  1.0
  O  O507  1  0.41590000  0.47825000  0.76249000  1.0
  O  O508  1  0.42952000  0.35929000  0.77421000  1.0
  O  O509  1  0.44130000  0.42171000  0.88842000  1.0
  O  O510  1  0.44256000  0.49563000  0.83938000  1.0
  O  O511  1  0.46442000  0.34826000  0.86029000  1.0
  O  O512  1  0.47072000  0.40766000  0.71538000  1.0
  O  O513  1  0.57834000  0.51077000  0.76615000  1.0
  O  O514  1  0.60216000  0.35686000  0.75485000  1.0
  O  O515  1  0.61340000  0.41897000  0.88923000  1.0
  O  O516  1  0.59642000  0.89178000  0.58588000  1.0
  O  O517  1  0.60532000  0.99697000  0.69906000  1.0
  O  O518  1  0.58244000  0.84513000  0.72935000  1.0
  O  O519  1  0.45580000  0.83633000  0.62047000  1.0
  O  O520  1  0.46266000  0.91034000  0.75886000  1.0
  O  O521  1  0.46162000  0.98990000  0.63072000  1.0
  O  O522  1  0.42688000  0.91006000  0.59623000  1.0
  O  O523  1  0.43562000  0.98402000  0.70939000  1.0
  O  O524  1  0.41656000  0.85661000  0.70518000  1.0
  O  O525  1  0.62286000  0.83730000  0.64244000  1.0
  O  O526  1  0.63426000  0.91898000  0.74103000  1.0
  O  O527  1  0.63214000  0.96900000  0.62612000  1.0
  O  O528  1  0.46478000  0.61240000  0.07306000  1.0
  O  O529  1  0.45098000  0.53221000  0.20771000  1.0
  O  O530  1  0.46460000  0.68412000  0.20665000  1.0
  O  O531  1  0.61082000  0.66645000  0.10487000  1.0
  O  O532  1  0.59678000  0.62343000  0.25326000  1.0
  O  O533  1  0.57066000  0.52031000  0.14087000  1.0
  O  O534  1  0.62746000  0.58833000  0.09187000  1.0
  O  O535  1  0.62290000  0.54538000  0.21047000  1.0
  O  O536  1  0.63642000  0.67095000  0.19283000  1.0
  O  O537  1  0.43912000  0.67581000  0.11826000  1.0
  O  O538  1  0.42760000  0.61446000  0.24150000  1.0
  O  O539  1  0.40972000  0.55234000  0.13378000  1.0
  O  O540  1  0.60750000  0.13422000  0.38942000  1.0
  O  O541  1  0.57952000  0.02670000  0.27852000  1.0
  O  O542  1  0.60350000  0.17767000  0.24623000  1.0
  O  O543  1  0.47356000  0.19922000  0.35259000  1.0
  O  O544  1  0.46290000  0.12068000  0.21717000  1.0
  O  O545  1  0.44784000  0.04654000  0.34913000  1.0
  O  O546  1  0.43484000  0.12848000  0.38293000  1.0
  O  O547  1  0.41550000  0.05348000  0.27139000  1.0
  O  O548  1  0.43464000  0.18100000  0.26749000  1.0
  O  O549  1  0.64040000  0.18764000  0.33275000  1.0
  O  O550  1  0.62900000  0.09971000  0.23328000  1.0
  O  O551  1  0.62094000  0.05535000  0.34927000  1.0
