# generated using pymatgen
data_ZnC2(NO2)2
_symmetry_space_group_name_H-M   'P 1'
_cell_length_a   14.93930000
_cell_length_b   17.42760000
_cell_length_c   19.02584972
_cell_angle_alpha   117.26696492
_cell_angle_beta   113.11670806
_cell_angle_gamma   90.00000000
_symmetry_Int_Tables_number   1
_chemical_formula_structural   ZnC2(NO2)2
_chemical_formula_sum   'Zn8 C16 N16 O32'
_cell_volume   3950.30561622
_cell_formula_units_Z   8
loop_
 _symmetry_equiv_pos_site_id
 _symmetry_equiv_pos_as_xyz
  1  'x, y, z'
loop_
 _atom_site_type_symbol
 _atom_site_label
 _atom_site_symmetry_multiplicity
 _atom_site_fract_x
 _atom_site_fract_y
 _atom_site_fract_z
 _atom_site_occupancy
  C  C0  1  0.52080000  0.45284000  0.65396000  1.0
  C  C1  1  0.81065000  0.47899500  0.67010000  1.0
  C  C2  1  0.75373000  0.69337000  0.75698000  1.0
  C  C3  1  0.58572000  0.39387000  0.47820000  1.0
  C  C4  1  0.49842000  0.16918000  0.06156000  1.0
  C  C5  1  0.21165000  0.17353000  0.04870000  1.0
  C  C6  1  0.25243000  0.28960500  0.94318000  1.0
  C  C7  1  0.43948000  0.31269000  0.24166000  1.0
  C  C8  1  0.71622000  0.09536000  0.04480000  1.0
  C  C9  1  0.98994000  0.06922000  0.02868000  1.0
  C  C10  1  0.84613000  0.85483000  0.94178000  1.0
  C  C11  1  0.95690000  0.15433000  0.22056000  1.0
  C  C12  1  0.28624500  0.37902500  0.63721000  1.0
  C  C13  1  0.01233500  0.37467500  0.65007000  1.0
  C  C14  1  0.15863000  0.25861000  0.75558000  1.0
  C  C15  1  0.04720000  0.23551000  0.45710000  1.0
  N  N16  1  0.49512333  0.37642333  0.33336667  1.0
  N  N17  1  0.53005250  0.34639250  0.38464500  1.0
  N  N18  1  0.99479000  0.20181000  0.31412000  1.0
  N  N19  1  0.01112000  0.17176000  0.36536000  1.0
  N  N20  1  0.38507500  0.38655500  0.64947000  1.0
  N  N21  1  0.42541000  0.44947000  0.65006000  1.0
  N  N22  1  0.62473500  0.09873500  0.04871000  1.0
  N  N23  1  0.58498500  0.16164500  0.04929000  1.0
  N  N24  1  0.14458500  0.11700500  0.04801000  1.0
  N  N25  1  0.05833000  0.12741000  0.03238000  1.0
  N  N26  1  0.87533000  0.42079000  0.66638000  1.0
  N  N27  1  0.94595500  0.43120500  0.65075000  1.0
  N  N28  1  0.85342000  0.74422000  0.80964000  1.0
  N  N29  1  0.89316000  0.80398000  0.88912000  1.0
  N  N30  1  0.11211000  0.26319000  0.80938000  1.0
  N  N31  1  0.15211000  0.28501000  0.88938000  1.0
  O  O32  1  0.71657000  0.66051000  0.67142000  1.0
  O  O33  1  0.60278000  0.48188000  0.52744000  1.0
  O  O34  1  0.61535000  0.34348000  0.51416000  1.0
  O  O35  1  0.72825000  0.63412000  0.77332000  1.0
  O  O36  1  0.79780000  0.52554000  0.63108000  1.0
  O  O37  1  0.74142000  0.47318500  0.69228000  1.0
  O  O38  1  0.56046000  0.51756000  0.64940000  1.0
  O  O39  1  0.56256000  0.38628000  0.65304000  1.0
  O  O40  1  0.29075000  0.34775000  0.02750000  1.0
  O  O41  1  0.41121000  0.33625000  0.17984000  1.0
  O  O42  1  0.41991000  0.22871000  0.22040000  1.0
  O  O43  1  0.27926000  0.21552000  0.93288000  1.0
  O  O44  1  0.21200500  0.25634500  0.07349000  1.0
  O  O45  1  0.28709500  0.15010500  0.03563000  1.0
  O  O46  1  0.45165500  0.23205500  0.05471000  1.0
  O  O47  1  0.46977500  0.11528000  0.08320000  1.0
  O  O48  1  0.89453000  0.88771000  0.02734000  1.0
  O  O49  1  0.92472500  0.06633500  0.17133000  1.0
  O  O50  1  0.95057000  0.20472000  0.18460000  1.0
  O  O51  1  0.80431000  0.91408000  0.92544000  1.0
  O  O52  1  0.01610000  0.02266000  0.06768000  1.0
  O  O53  1  0.89852000  0.07502000  0.00648000  1.0
  O  O54  1  0.76044000  0.03064000  0.04936000  1.0
  O  O55  1  0.75890000  0.16194000  0.04572000  1.0
  O  O56  1  0.11263000  0.20045000  0.67126000  1.0
  O  O57  1  0.08075000  0.21195000  0.51892000  1.0
  O  O58  1  0.04889000  0.31949000  0.47836000  1.0
  O  O59  1  0.19576000  0.33268000  0.76588000  1.0
  O  O60  1  0.98789500  0.29186500  0.62527000  1.0
  O  O61  1  0.10084500  0.39810500  0.66313000  1.0
  O  O62  1  0.24632500  0.31614500  0.64405000  1.0
  O  O63  1  0.23595500  0.43292500  0.61557000  1.0
  Zn  Zn64  1  0.66516500  0.36891500  0.62905000  1.0
  Zn  Zn65  1  0.68455000  0.54667000  0.65370000  1.0
  Zn  Zn66  1  0.37143000  0.12710000  0.11274000  1.0
  Zn  Zn67  1  0.32947000  0.25873000  0.05570000  1.0
  Zn  Zn68  1  0.88549500  0.17929500  0.06971000  1.0
  Zn  Zn69  1  0.88023500  0.00153500  0.04507000  1.0
  Zn  Zn70  1  0.10807000  0.42111000  0.58602000  1.0
  Zn  Zn71  1  0.12315000  0.28948000  0.64306000  1.0
