# generated using pymatgen
data_CuH24C58(NO)6
_symmetry_space_group_name_H-M   'P 1'
_cell_length_a   48.32350000
_cell_length_b   52.82790000
_cell_length_c   53.07107453
_cell_angle_alpha   60.15236489
_cell_angle_beta   90.34114501
_cell_angle_gamma   89.53000000
_symmetry_Int_Tables_number   1
_chemical_formula_structural   CuH24C58(NO)6
_chemical_formula_sum   'Cu6 H144 C348 N36 O36'
_cell_volume   117498.22049967
_cell_formula_units_Z   6
loop_
 _symmetry_equiv_pos_site_id
 _symmetry_equiv_pos_as_xyz
  1  'x, y, z'
loop_
 _atom_site_type_symbol
 _atom_site_label
 _atom_site_symmetry_multiplicity
 _atom_site_fract_x
 _atom_site_fract_y
 _atom_site_fract_z
 _atom_site_occupancy
  Cu  Cu0  1  0.28473000  0.72285000  0.58575000  1.0
  Cu  Cu1  1  0.78535000  0.43799000  0.31890000  1.0
  Cu  Cu2  1  0.28431000  0.71514000  0.76282000  1.0
  Cu  Cu3  1  0.78335000  0.27496000  0.48126000  1.0
  Cu  Cu4  1  0.28317000  0.54252000  0.76760000  1.0
  Cu  Cu5  1  0.78381000  0.26826000  0.31386000  1.0
  H  H6  1  0.10645000  0.58210000  0.53073000  1.0
  H  H7  1  0.95980000  0.50592000  0.45246000  1.0
  H  H8  1  0.95902000  0.42247000  0.53314000  1.0
  H  H9  1  0.10717000  0.50226000  0.61475000  1.0
  H  H10  1  0.16341000  0.57051000  0.59708000  1.0
  H  H11  1  0.90319000  0.44028000  0.46357000  1.0
  H  H12  1  0.04441000  0.54067000  0.48327000  1.0
  H  H13  1  0.02213000  0.46264000  0.58499000  1.0
  H  H14  1  0.61121000  0.41878000  0.11810000  1.0
  H  H15  1  0.47638000  0.50277000  0.94669000  1.0
  H  H16  1  0.47304000  0.58267000  0.95134000  1.0
  H  H17  1  0.61501000  0.50368000  0.11286000  1.0
  H  H18  1  0.66457000  0.43217000  0.17389000  1.0
  H  H19  1  0.42567000  0.57470000  0.88783000  1.0
  H  H20  1  0.53349000  0.45101000  0.04237000  1.0
  H  H21  1  0.55649000  0.55303000  0.01923000  1.0
  H  H22  1  0.11145000  0.91809000  0.54028000  1.0
  H  H23  1  0.97729000  0.09053000  0.45291000  1.0
  H  H24  1  0.97242000  0.08481000  0.53742000  1.0
  H  H25  1  0.11462000  0.92253000  0.62008000  1.0
  H  H26  1  0.16467000  0.86173000  0.60995000  1.0
  H  H27  1  0.92506000  0.14856000  0.46536000  1.0
  H  H28  1  0.03357000  0.99448000  0.49631000  1.0
  H  H29  1  0.05644000  0.01645000  0.57603000  1.0
  H  H30  1  0.61170000  0.42184000  0.53804000  1.0
  H  H31  1  0.45636000  0.49543000  0.61332000  1.0
  H  H32  1  0.46436000  0.58098000  0.53666000  1.0
  H  H33  1  0.60523000  0.49954000  0.45236000  1.0
  H  H34  1  0.66459000  0.43284000  0.46997000  1.0
  H  H35  1  0.40418000  0.56663000  0.60056000  1.0
  H  H36  1  0.54612000  0.46099000  0.58546000  1.0
  H  H37  1  0.52329000  0.54126000  0.48407000  1.0
  H  H38  1  0.09805000  0.49730000  0.95512000  1.0
  H  H39  1  0.94806000  0.42063000  0.10565000  1.0
  H  H40  1  0.95273000  0.49823000  0.11414000  1.0
  H  H41  1  0.09675000  0.58232000  0.94997000  1.0
  H  H42  1  0.15276000  0.56374000  0.89937000  1.0
  H  H43  1  0.89275000  0.43288000  0.16093000  1.0
  H  H44  1  0.03420000  0.45047000  0.04145000  1.0
  H  H45  1  0.01215000  0.55227000  0.02063000  1.0
  H  H46  1  0.59246000  0.09094000  0.53229000  1.0
  H  H47  1  0.45714000  0.91772000  0.61854000  1.0
  H  H48  1  0.45284000  0.92677000  0.53244000  1.0
  H  H49  1  0.59374000  0.08605000  0.45264000  1.0
  H  H50  1  0.64102000  0.14930000  0.46009000  1.0
  H  H51  1  0.40482000  0.86307000  0.60134000  1.0
  H  H52  1  0.51174000  0.01658000  0.57506000  1.0
  H  H53  1  0.53430000  0.99469000  0.49547000  1.0
  H  H54  1  0.23876000  0.82143000  0.54588000  1.0
  H  H55  1  0.27448000  0.78676000  0.54965000  1.0
  H  H56  1  0.23636000  0.71869000  0.62400000  1.0
  H  H57  1  0.19948000  0.75260000  0.62120000  1.0
  H  H58  1  0.29278000  0.69095000  0.55319000  1.0
  H  H59  1  0.33013000  0.66322000  0.54702000  1.0
  H  H60  1  0.33884000  0.69657000  0.61841000  1.0
  H  H61  1  0.37749000  0.66885000  0.61298000  1.0
  H  H62  1  0.30322000  0.75369000  0.61882000  1.0
  H  H63  1  0.33558000  0.79355000  0.60900000  1.0
  H  H64  1  0.36259000  0.79203000  0.53261000  1.0
  H  H65  1  0.33139000  0.75180000  0.54429000  1.0
  H  H66  1  0.23214000  0.73729000  0.55065000  1.0
  H  H67  1  0.26882000  0.65831000  0.61580000  1.0
  H  H68  1  0.23510000  0.62987000  0.60509000  1.0
  H  H69  1  0.19871000  0.71051000  0.53863000  1.0
  H  H70  1  0.73704000  0.42006000  0.24338000  1.0
  H  H71  1  0.76781000  0.40649000  0.28576000  1.0
  H  H72  1  0.73564000  0.47685000  0.29399000  1.0
  H  H73  1  0.70537000  0.49180000  0.25192000  1.0
  H  H74  1  0.80387000  0.40956000  0.38296000  1.0
  H  H75  1  0.83877000  0.42206000  0.40921000  1.0
  H  H76  1  0.83725000  0.47252000  0.30236000  1.0
  H  H77  1  0.87206000  0.48563000  0.32686000  1.0
  H  H78  1  0.79204000  0.47742000  0.25530000  1.0
  H  H79  1  0.82555000  0.48475000  0.21831000  1.0
  H  H80  1  0.86921000  0.40709000  0.28091000  1.0
  H  H81  1  0.83453000  0.40093000  0.31762000  1.0
  H  H82  1  0.73237000  0.40482000  0.34758000  1.0
  H  H83  1  0.77808000  0.47133000  0.35069000  1.0
  H  H84  1  0.74067000  0.47998000  0.37625000  1.0
  H  H85  1  0.69389000  0.41230000  0.37377000  1.0
  H  H86  1  0.23608000  0.79129000  0.66909000  1.0
  H  H87  1  0.26671000  0.74853000  0.69816000  1.0
  H  H88  1  0.23531000  0.74095000  0.77597000  1.0
  H  H89  1  0.20520000  0.78339000  0.74859000  1.0
  H  H90  1  0.30297000  0.65095000  0.79851000  1.0
  H  H91  1  0.33998000  0.62456000  0.83506000  1.0
  H  H92  1  0.33656000  0.73194000  0.78093000  1.0
  H  H93  1  0.37342000  0.70728000  0.81645000  1.0
  H  H94  1  0.29199000  0.77902000  0.73928000  1.0
  H  H95  1  0.32548000  0.81609000  0.70970000  1.0
  H  H96  1  0.36724000  0.75338000  0.69358000  1.0
  H  H97  1  0.33262000  0.71672000  0.72387000  1.0
  H  H98  1  0.23055000  0.68754000  0.75680000  1.0
  H  H99  1  0.27630000  0.68219000  0.82765000  1.0
  H  H100  1  0.23843000  0.65678000  0.86078000  1.0
  H  H101  1  0.19170000  0.66148000  0.78931000  1.0
  H  H102  1  0.73423000  0.36983000  0.46086000  1.0
  H  H103  1  0.76565000  0.33999000  0.44913000  1.0
  H  H104  1  0.73465000  0.26261000  0.51991000  1.0
  H  H105  1  0.70370000  0.29077000  0.53300000  1.0
  H  H106  1  0.80104000  0.23847000  0.45334000  1.0
  H  H107  1  0.83791000  0.20169000  0.46347000  1.0
  H  H108  1  0.83585000  0.25621000  0.51634000  1.0
  H  H109  1  0.87256000  0.22032000  0.52729000  1.0
  H  H110  1  0.79230000  0.30015000  0.51994000  1.0
  H  H111  1  0.82621000  0.33066000  0.52603000  1.0
  H  H112  1  0.86677000  0.34391000  0.44850000  1.0
  H  H113  1  0.83182000  0.31264000  0.44359000  1.0
  H  H114  1  0.72967000  0.28080000  0.44737000  1.0
  H  H115  1  0.77484000  0.20991000  0.51429000  1.0
  H  H116  1  0.73667000  0.17677000  0.52191000  1.0
  H  H117  1  0.69058000  0.24839000  0.45374000  1.0
  H  H118  1  0.23723000  0.50436000  0.70757000  1.0
  H  H119  1  0.27261000  0.50685000  0.73934000  1.0
  H  H120  1  0.23303000  0.58091000  0.73475000  1.0
  H  H121  1  0.19652000  0.57943000  0.70278000  1.0
  H  H122  1  0.29305000  0.50997000  0.83196000  1.0
  H  H123  1  0.33063000  0.50504000  0.86527000  1.0
  H  H124  1  0.33643000  0.57589000  0.76062000  1.0
  H  H125  1  0.37513000  0.57177000  0.79304000  1.0
  H  H126  1  0.30000000  0.57702000  0.70367000  1.0
  H  H127  1  0.33304000  0.56963000  0.67247000  1.0
  H  H128  1  0.36351000  0.49202000  0.74800000  1.0
  H  H129  1  0.33126000  0.50126000  0.77785000  1.0
  H  H130  1  0.23182000  0.50642000  0.78985000  1.0
  H  H131  1  0.26673000  0.57294000  0.80198000  1.0
  H  H132  1  0.23212000  0.56412000  0.83952000  1.0
  H  H133  1  0.19741000  0.49631000  0.82711000  1.0
  H  H134  1  0.73818000  0.32579000  0.21535000  1.0
  H  H135  1  0.77344000  0.29441000  0.25040000  1.0
  H  H136  1  0.73498000  0.30332000  0.31720000  1.0
  H  H137  1  0.69853000  0.33485000  0.28291000  1.0
  H  H138  1  0.79356000  0.20382000  0.34730000  1.0
  H  H139  1  0.83184000  0.17105000  0.37530000  1.0
  H  H140  1  0.83736000  0.27677000  0.33881000  1.0
  H  H141  1  0.87670000  0.24491000  0.36684000  1.0
  H  H142  1  0.80099000  0.33256000  0.28298000  1.0
  H  H143  1  0.83234000  0.36313000  0.24273000  1.0
  H  H144  1  0.86142000  0.28571000  0.24315000  1.0
  H  H145  1  0.83093000  0.25660000  0.28372000  1.0
  H  H146  1  0.73191000  0.24615000  0.30007000  1.0
  H  H147  1  0.76740000  0.23505000  0.37818000  1.0
  H  H148  1  0.73182000  0.19881000  0.40681000  1.0
  H  H149  1  0.69667000  0.21006000  0.32713000  1.0
  C  C150  1  0.13662000  0.57837000  0.56171000  1.0
  C  C151  1  0.11503000  0.56771000  0.55198000  1.0
  C  C152  1  0.07531000  0.53720000  0.53138000  1.0
  C  C153  1  0.05391000  0.52122000  0.52940000  1.0
  C  C154  1  0.93143000  0.47432000  0.45527000  1.0
  C  C155  1  0.95208000  0.48439000  0.46656000  1.0
  C  C156  1  0.00148000  0.49961000  0.49239000  1.0
  C  C157  1  0.01887000  0.50336000  0.51089000  1.0
  C  C158  1  0.92973000  0.42875000  0.50009000  1.0
  C  C159  1  0.95097000  0.43792000  0.51193000  1.0
  C  C160  1  0.99110000  0.46629000  0.53596000  1.0
  C  C161  1  0.01248000  0.48213000  0.53870000  1.0
  C  C162  1  0.13536000  0.53542000  0.60888000  1.0
  C  C163  1  0.11472000  0.52346000  0.59933000  1.0
  C  C164  1  0.06547000  0.50447000  0.57536000  1.0
  C  C165  1  0.04766000  0.50017000  0.55731000  1.0
  C  C166  1  0.14695000  0.56183000  0.58963000  1.0
  C  C167  1  0.10425000  0.53932000  0.57029000  1.0
  C  C168  1  0.91958000  0.44753000  0.47256000  1.0
  C  C169  1  0.96222000  0.46647000  0.49549000  1.0
  C  C170  1  0.03976000  0.52376000  0.50509000  1.0
  C  C171  1  0.02673000  0.47957000  0.56315000  1.0
  C  C172  1  0.63752000  0.42274000  0.14776000  1.0
  C  C173  1  0.61861000  0.43377000  0.12463000  1.0
  C  C174  1  0.57348000  0.46000000  0.07779000  1.0
  C  C175  1  0.55769000  0.47855000  0.05384000  1.0
  C  C176  1  0.44949000  0.53684000  0.91669000  1.0
  C  C177  1  0.46909000  0.52468000  0.93941000  1.0
  C  C178  1  0.50544000  0.50038000  0.99453000  1.0
  C  C179  1  0.52560000  0.49762000  0.01431000  1.0
  C  C180  1  0.44910000  0.58166000  0.91806000  1.0
  C  C181  1  0.46792000  0.56980000  0.94139000  1.0
  C  C182  1  0.51618000  0.54421000  0.98411000  1.0
  C  C183  1  0.53224000  0.52555000  0.00777000  1.0
  C  C184  1  0.64167000  0.47003000  0.14333000  1.0
  C  C185  1  0.62157000  0.48141000  0.12108000  1.0
  C  C186  1  0.58394000  0.50386000  0.06734000  1.0
  C  C187  1  0.56422000  0.50645000  0.04731000  1.0
  C  C188  1  0.64939000  0.44098000  0.15627000  1.0
  C  C189  1  0.61001000  0.46353000  0.11065000  1.0
  C  C190  1  0.44053000  0.56533000  0.90574000  1.0
  C  C191  1  0.47891000  0.54117000  0.95211000  1.0
  C  C192  1  0.53823000  0.47292000  0.03753000  1.0
  C  C193  1  0.55176000  0.53114000  0.02401000  1.0
  C  C194  1  0.13772000  0.88816000  0.57411000  1.0
  C  C195  1  0.11878000  0.91140000  0.56185000  1.0
  C  C196  1  0.07364000  0.95857000  0.54087000  1.0
  C  C197  1  0.05779000  0.98254000  0.53555000  1.0
  C  C198  1  0.94978000  0.12009000  0.45672000  1.0
  C  C199  1  0.96947000  0.09745000  0.46751000  1.0
  C  C200  1  0.00532000  0.04203000  0.49830000  1.0
  C  C201  1  0.02558000  0.02217000  0.51525000  1.0
  C  C202  1  0.94829000  0.11821000  0.50291000  1.0
  C  C203  1  0.96736000  0.09489000  0.51461000  1.0
  C  C204  1  0.01599000  0.05198000  0.53208000  1.0
  C  C205  1  0.03218000  0.02840000  0.53688000  1.0
  C  C206  1  0.14153000  0.89222000  0.61707000  1.0
  C  C207  1  0.12139000  0.91453000  0.60604000  1.0
  C  C208  1  0.08399000  0.96859000  0.57462000  1.0
  C  C209  1  0.06427000  0.98877000  0.55715000  1.0
  C  C210  1  0.14946000  0.87943000  0.60100000  1.0
  C  C211  1  0.11005000  0.92526000  0.57759000  1.0
  C  C212  1  0.94007000  0.13069000  0.47416000  1.0
  C  C213  1  0.97875000  0.08435000  0.49684000  1.0
  C  C214  1  0.03829000  0.99908000  0.51355000  1.0
  C  C215  1  0.05175000  0.01196000  0.55873000  1.0
  C  C216  1  0.63979000  0.42542000  0.50604000  1.0
  C  C217  1  0.61851000  0.43604000  0.51626000  1.0
  C  C218  1  0.57704000  0.46533000  0.53715000  1.0
  C  C219  1  0.55561000  0.48145000  0.53937000  1.0
  C  C220  1  0.42946000  0.52944000  0.61009000  1.0
  C  C221  1  0.45021000  0.51797000  0.59987000  1.0
  C  C222  1  0.50210000  0.50218000  0.57637000  1.0
  C  C223  1  0.52008000  0.49885000  0.55803000  1.0
  C  C224  1  0.43319000  0.57632000  0.56680000  1.0
  C  C225  1  0.45417000  0.56572000  0.55641000  1.0
  C  C226  1  0.49167000  0.53616000  0.53267000  1.0
  C  C227  1  0.51359000  0.52061000  0.53020000  1.0
  C  C228  1  0.63493000  0.46719000  0.45834000  1.0
  C  C229  1  0.61432000  0.47906000  0.46815000  1.0
  C  C230  1  0.56710000  0.49932000  0.49343000  1.0
  C  C231  1  0.54929000  0.50320000  0.51159000  1.0
  C  C232  1  0.64826000  0.44150000  0.47767000  1.0
  C  C233  1  0.60586000  0.46388000  0.49781000  1.0
  C  C234  1  0.42043000  0.55797000  0.59279000  1.0
  C  C235  1  0.46270000  0.53607000  0.57236000  1.0
  C  C236  1  0.54136000  0.47838000  0.56373000  1.0
  C  C237  1  0.52807000  0.52386000  0.50583000  1.0
  C  C238  1  0.12705000  0.52841000  0.92739000  1.0
  C  C239  1  0.10568000  0.51886000  0.94780000  1.0
  C  C240  1  0.06508000  0.49864000  0.99789000  1.0
  C  C241  1  0.04375000  0.49670000  0.01591000  1.0
  C  C242  1  0.92000000  0.42371000  0.13492000  1.0
  C  C243  1  0.94098000  0.43443000  0.11393000  1.0
  C  C244  1  0.99141000  0.45939000  0.07401000  1.0
  C  C245  1  0.00880000  0.47800000  0.05210000  1.0
  C  C246  1  0.92176000  0.46708000  0.13876000  1.0
  C  C247  1  0.94301000  0.47828000  0.11817000  1.0
  C  C248  1  0.98122000  0.50305000  0.06499000  1.0
  C  C249  1  0.00251000  0.50588000  0.04630000  1.0
  C  C250  1  0.12500000  0.57609000  0.92265000  1.0
  C  C251  1  0.10436000  0.56677000  0.94412000  1.0
  C  C252  1  0.05553000  0.54271000  0.98779000  1.0
  C  C253  1  0.03764000  0.52466000  0.00981000  1.0
  C  C254  1  0.13646000  0.55656000  0.91545000  1.0
  C  C255  1  0.09422000  0.53755000  0.95749000  1.0
  C  C256  1  0.90938000  0.44112000  0.14521000  1.0
  C  C257  1  0.95248000  0.46258000  0.10442000  1.0
  C  C258  1  0.02960000  0.47231000  0.03715000  1.0
  C  C259  1  0.01676000  0.53042000  0.02492000  1.0
  C  C260  1  0.61711000  0.12189000  0.49743000  1.0
  C  C261  1  0.59837000  0.09852000  0.51018000  1.0
  C  C262  1  0.55212000  0.05221000  0.53088000  1.0
  C  C263  1  0.53587000  0.02854000  0.53602000  1.0
  C  C264  1  0.42960000  0.88924000  0.61275000  1.0
  C  C265  1  0.44908000  0.91193000  0.60312000  1.0
  C  C266  1  0.48423000  0.96845000  0.57310000  1.0
  C  C267  1  0.50392000  0.98882000  0.55611000  1.0
  C  C268  1  0.42858000  0.89356000  0.56542000  1.0
  C  C269  1  0.44737000  0.91655000  0.55502000  1.0
  C  C270  1  0.49510000  0.95887000  0.53924000  1.0
  C  C271  1  0.51051000  0.98270000  0.53447000  1.0
  C  C272  1  0.61912000  0.11759000  0.45447000  1.0
  C  C273  1  0.59966000  0.09506000  0.46605000  1.0
  C  C274  1  0.56176000  0.04204000  0.49721000  1.0
  C  C275  1  0.54208000  0.02229000  0.51444000  1.0
  C  C276  1  0.62647000  0.13140000  0.46968000  1.0
  C  C277  1  0.58854000  0.08490000  0.49437000  1.0
  C  C278  1  0.41968000  0.88067000  0.59374000  1.0
  C  C279  1  0.45831000  0.92620000  0.57373000  1.0
  C  C280  1  0.51645000  0.01202000  0.55783000  1.0
  C  C281  1  0.52965000  0.99923000  0.51273000  1.0
  C  C282  1  0.31657000  0.76195000  0.60018000  1.0
  C  C283  1  0.33478000  0.78469000  0.59449000  1.0
  C  C284  1  0.35118000  0.79609000  0.56959000  1.0
  C  C285  1  0.33197000  0.76099000  0.55841000  1.0
  C  C286  1  0.34999000  0.78376000  0.55181000  1.0
  C  C287  1  0.23274000  0.71378000  0.56284000  1.0
  C  C288  1  0.25313000  0.66961000  0.59923000  1.0
  C  C289  1  0.23414000  0.65348000  0.59299000  1.0
  C  C290  1  0.21493000  0.66827000  0.57026000  1.0
  C  C291  1  0.21367000  0.69858000  0.55590000  1.0
  C  C292  1  0.21605000  0.78926000  0.58255000  1.0
  C  C293  1  0.23803000  0.79902000  0.56336000  1.0
  C  C294  1  0.25845000  0.77935000  0.56573000  1.0
  C  C295  1  0.23712000  0.74138000  0.60735000  1.0
  C  C296  1  0.21601000  0.76048000  0.60554000  1.0
  C  C297  1  0.31109000  0.68577000  0.56665000  1.0
  C  C298  1  0.33238000  0.67021000  0.56292000  1.0
  C  C299  1  0.35691000  0.66516000  0.57860000  1.0
  C  C300  1  0.35895000  0.67340000  0.59982000  1.0
  C  C301  1  0.33693000  0.68883000  0.60310000  1.0
  C  C302  1  0.80866000  0.46173000  0.26100000  1.0
  C  C303  1  0.82782000  0.46606000  0.23989000  1.0
  C  C304  1  0.85034000  0.44712000  0.24697000  1.0
  C  C305  1  0.83240000  0.41895000  0.29567000  1.0
  C  C306  1  0.85229000  0.42265000  0.27492000  1.0
  C  C307  1  0.73425000  0.42096000  0.35430000  1.0
  C  C308  1  0.75984000  0.45810000  0.35593000  1.0
  C  C309  1  0.73849000  0.46321000  0.37037000  1.0
  C  C310  1  0.71397000  0.44779000  0.37570000  1.0
  C  C311  1  0.71226000  0.42542000  0.36888000  1.0
  C  C312  1  0.71951000  0.45766000  0.24397000  1.0
  C  C313  1  0.73646000  0.43272000  0.25432000  1.0
  C  C314  1  0.75373000  0.42487000  0.27852000  1.0
  C  C315  1  0.73597000  0.46427000  0.28308000  1.0
  C  C316  1  0.71866000  0.47281000  0.25914000  1.0
  C  C317  1  0.81925000  0.42577000  0.37082000  1.0
  C  C318  1  0.83895000  0.43296000  0.38571000  1.0
  C  C319  1  0.85769000  0.45533000  0.36972000  1.0
  C  C320  1  0.85768000  0.46846000  0.33965000  1.0
  C  C321  1  0.83785000  0.46080000  0.32574000  1.0
  C  C322  1  0.30820000  0.77332000  0.72908000  1.0
  C  C323  1  0.32739000  0.79450000  0.71234000  1.0
  C  C324  1  0.34945000  0.78742000  0.70017000  1.0
  C  C325  1  0.33088000  0.73866000  0.72032000  1.0
  C  C326  1  0.35076000  0.75942000  0.70336000  1.0
  C  C327  1  0.23234000  0.68043000  0.77968000  1.0
  C  C328  1  0.25793000  0.67755000  0.81913000  1.0
  C  C329  1  0.23628000  0.66316000  0.83808000  1.0
  C  C330  1  0.21165000  0.65836000  0.82741000  1.0
  C  C331  1  0.21011000  0.66589000  0.79810000  1.0
  C  C332  1  0.21896000  0.79103000  0.70686000  1.0
  C  C333  1  0.23568000  0.78043000  0.69257000  1.0
  C  C334  1  0.25288000  0.75604000  0.70907000  1.0
  C  C335  1  0.23557000  0.75186000  0.75259000  1.0
  C  C336  1  0.21832000  0.77599000  0.73704000  1.0
  C  C337  1  0.31869000  0.66315000  0.80227000  1.0
  C  C338  1  0.33958000  0.64819000  0.82311000  1.0
  C  C339  1  0.35918000  0.66421000  0.82874000  1.0
  C  C340  1  0.35837000  0.69447000  0.81265000  1.0
  C  C341  1  0.33739000  0.70845000  0.79225000  1.0
  C  C342  1  0.80833000  0.30992000  0.50403000  1.0
  C  C343  1  0.82774000  0.32718000  0.50766000  1.0
  C  C344  1  0.84951000  0.33891000  0.48832000  1.0
  C  C345  1  0.83039000  0.31705000  0.46135000  1.0
  C  C346  1  0.85046000  0.33457000  0.46432000  1.0
  C  C347  1  0.73130000  0.25790000  0.46342000  1.0
  C  C348  1  0.75654000  0.21840000  0.50080000  1.0
  C  C349  1  0.73472000  0.19948000  0.50530000  1.0
  C  C350  1  0.71018000  0.21028000  0.48935000  1.0
  C  C351  1  0.70893000  0.23954000  0.46724000  1.0
  C  C352  1  0.71716000  0.33240000  0.49849000  1.0
  C  C353  1  0.73410000  0.34627000  0.47405000  1.0
  C  C354  1  0.75180000  0.32932000  0.46730000  1.0
  C  C355  1  0.73469000  0.28606000  0.50692000  1.0
  C  C356  1  0.71694000  0.30206000  0.51438000  1.0
  C  C357  1  0.81695000  0.23461000  0.46930000  1.0
  C  C358  1  0.83778000  0.21362000  0.47516000  1.0
  C  C359  1  0.85773000  0.20792000  0.49669000  1.0
  C  C360  1  0.85724000  0.22410000  0.51080000  1.0
  C  C361  1  0.83632000  0.24468000  0.50438000  1.0
  C  C362  1  0.31414000  0.55857000  0.71333000  1.0
  C  C363  1  0.33283000  0.55428000  0.69557000  1.0
  C  C364  1  0.35056000  0.52983000  0.70788000  1.0
  C  C365  1  0.33131000  0.51615000  0.75476000  1.0
  C  C366  1  0.34994000  0.51095000  0.73780000  1.0
  C  C367  1  0.23198000  0.51917000  0.80060000  1.0
  C  C368  1  0.25135000  0.55634000  0.80738000  1.0
  C  C369  1  0.23180000  0.55120000  0.82886000  1.0
  C  C370  1  0.21255000  0.52885000  0.83671000  1.0
  C  C371  1  0.21233000  0.51332000  0.82187000  1.0
  C  C372  1  0.21380000  0.54107000  0.70357000  1.0
  C  C373  1  0.23599000  0.52140000  0.71318000  1.0
  C  C374  1  0.25623000  0.52304000  0.73102000  1.0
  C  C375  1  0.23410000  0.56447000  0.72833000  1.0
  C  C376  1  0.21318000  0.56343000  0.71047000  1.0
  C  C377  1  0.31084000  0.52378000  0.82342000  1.0
  C  C378  1  0.33228000  0.52078000  0.84239000  1.0
  C  C379  1  0.35615000  0.53715000  0.83147000  1.0
  C  C380  1  0.35720000  0.55812000  0.80196000  1.0
  C  C381  1  0.33512000  0.56062000  0.78361000  1.0
  C  C382  1  0.81455000  0.32236000  0.27443000  1.0
  C  C383  1  0.83225000  0.33976000  0.25143000  1.0
  C  C384  1  0.84896000  0.32667000  0.23946000  1.0
  C  C385  1  0.83097000  0.27992000  0.27474000  1.0
  C  C386  1  0.84859000  0.29645000  0.25173000  1.0
  C  C387  1  0.73202000  0.23589000  0.32343000  1.0
  C  C388  1  0.75171000  0.22968000  0.36708000  1.0
  C  C389  1  0.73162000  0.20891000  0.38337000  1.0
  C  C390  1  0.71185000  0.20119000  0.36901000  1.0
  C  C391  1  0.71189000  0.21528000  0.33880000  1.0
  C  C392  1  0.71526000  0.33155000  0.24688000  1.0
  C  C393  1  0.73723000  0.32124000  0.23758000  1.0
  C  C394  1  0.75738000  0.30366000  0.25747000  1.0
  C  C395  1  0.73587000  0.30877000  0.29474000  1.0
  C  C396  1  0.71500000  0.32634000  0.27541000  1.0
  C  C397  1  0.81158000  0.21281000  0.35189000  1.0
  C  C398  1  0.83338000  0.19416000  0.36764000  1.0
  C  C399  1  0.85750000  0.20574000  0.37204000  1.0
  C  C400  1  0.85853000  0.23552000  0.36287000  1.0
  C  C401  1  0.83612000  0.25354000  0.34720000  1.0
  C  C402  1  0.14802000  0.60708000  0.54554000  1.0
  C  C403  1  0.16306000  0.62604000  0.54363000  1.0
  C  C404  1  0.18166000  0.64174000  0.55117000  1.0
  C  C405  1  0.19711000  0.65311000  0.56043000  1.0
  C  C406  1  0.65488000  0.48606000  0.15525000  1.0
  C  C407  1  0.67047000  0.48735000  0.17238000  1.0
  C  C408  1  0.68876000  0.47883000  0.19618000  1.0
  C  C409  1  0.70309000  0.46844000  0.21781000  1.0
  C  C410  1  0.15453000  0.88010000  0.64517000  1.0
  C  C411  1  0.16999000  0.86292000  0.66389000  1.0
  C  C412  1  0.18819000  0.83901000  0.67968000  1.0
  C  C413  1  0.20249000  0.81727000  0.69128000  1.0
  C  C414  1  0.65258000  0.39701000  0.52214000  1.0
  C  C415  1  0.66787000  0.37799000  0.52394000  1.0
  C  C416  1  0.68579000  0.36124000  0.51683000  1.0
  C  C417  1  0.70028000  0.34867000  0.50798000  1.0
  C  C418  1  0.14015000  0.51136000  0.91631000  1.0
  C  C419  1  0.15636000  0.50836000  0.90070000  1.0
  C  C420  1  0.17647000  0.51381000  0.87928000  1.0
  C  C421  1  0.19315000  0.52117000  0.86003000  1.0
  C  C422  1  0.63434000  0.12690000  0.42804000  1.0
  C  C423  1  0.65182000  0.14128000  0.41066000  1.0
  C  C424  1  0.67350000  0.16100000  0.39587000  1.0
  C  C425  1  0.69130000  0.17913000  0.38453000  1.0
  C  C426  1  0.43585000  0.60968000  0.90653000  1.0
  C  C427  1  0.41933000  0.62772000  0.89035000  1.0
  C  C428  1  0.39797000  0.64116000  0.86951000  1.0
  C  C429  1  0.37991000  0.65052000  0.85125000  1.0
  C  C430  1  0.93459000  0.12977000  0.51902000  1.0
  C  C431  1  0.91798000  0.14589667  0.52077000  1.0
  C  C432  1  0.89663000  0.16692000  0.51375000  1.0
  C  C433  1  0.87855000  0.18533000  0.50526000  1.0
  C  C434  1  0.41761000  0.51459000  0.63879000  1.0
  C  C435  1  0.40324000  0.51242000  0.65838000  1.0
  C  C436  1  0.38499000  0.51730000  0.67651000  1.0
  C  C437  1  0.36914000  0.52347000  0.69031000  1.0
  C  C438  1  0.91032000  0.39403000  0.15005000  1.0
  C  C439  1  0.89719000  0.37427000  0.16878000  1.0
  C  C440  1  0.88052000  0.35678000  0.19324000  1.0
  C  C441  1  0.86595000  0.34367000  0.21425000  1.0
  C  C442  1  0.41742000  0.88122000  0.54883000  1.0
  C  C443  1  0.40311000  0.86385000  0.54660000  1.0
  C  C444  1  0.38478000  0.84072000  0.55332000  1.0
  C  C445  1  0.36922000  0.82045000  0.56153000  1.0
  C  C446  1  0.92278000  0.48854000  0.42538000  1.0
  C  C447  1  0.90937000  0.48809000  0.40642000  1.0
  C  C448  1  0.89154000  0.47772000  0.39253000  1.0
  C  C449  1  0.87578000  0.46679000  0.38314000  1.0
  C  C450  1  0.91895000  0.39960000  0.51278000  1.0
  C  C451  1  0.90483000  0.38125000  0.51185000  1.0
  C  C452  1  0.88709000  0.36569000  0.50306000  1.0
  C  C453  1  0.87099000  0.35390000  0.49473000  1.0
  C  C454  1  0.43629000  0.52141000  0.90409000  1.0
  C  C455  1  0.42005000  0.51914000  0.88800000  1.0
  C  C456  1  0.39874000  0.52437000  0.86757000  1.0
  C  C457  1  0.37980000  0.53084000  0.85045000  1.0
  C  C458  1  0.93744000  0.13303000  0.42831000  1.0
  C  C459  1  0.92162000  0.14937000  0.40954000  1.0
  C  C460  1  0.90046000  0.17002000  0.39437000  1.0
  C  C461  1  0.88143000  0.18711000  0.38412000  1.0
  C  C462  1  0.42577000  0.60655000  0.55388000  1.0
  C  C463  1  0.41365000  0.62670000  0.55344000  1.0
  C  C464  1  0.39665000  0.64276000  0.56195000  1.0
  C  C465  1  0.37992000  0.65302000  0.57112000  1.0
  C  C466  1  0.91421000  0.47789000  0.15791000  1.0
  C  C467  1  0.90221000  0.47550000  0.17887000  1.0
  C  C468  1  0.88649000  0.46459000  0.20457000  1.0
  C  C469  1  0.87145000  0.45459000  0.22535000  1.0
  C  C470  1  0.41907000  0.87232000  0.64188000  1.0
  C  C471  1  0.40510000  0.85287000  0.65995000  1.0
  C  C472  1  0.38712000  0.82878000  0.67488000  1.0
  C  C473  1  0.37088000  0.80888000  0.68600000  1.0
  C  C474  1  0.64524000  0.39261000  0.16476000  1.0
  C  C475  1  0.65748000  0.37257000  0.18440000  1.0
  C  C476  1  0.67523000  0.35646000  0.20830000  1.0
  C  C477  1  0.69245000  0.34540000  0.22726000  1.0
  C  C478  1  0.14556000  0.87125000  0.56100000  1.0
  C  C479  1  0.15787000  0.85160000  0.56067000  1.0
  C  C480  1  0.17569000  0.82763000  0.56862000  1.0
  C  C481  1  0.19303000  0.80870000  0.57666000  1.0
  C  C482  1  0.64242000  0.47826000  0.42847000  1.0
  C  C483  1  0.65517000  0.47643000  0.40991000  1.0
  C  C484  1  0.67327000  0.46643000  0.39574000  1.0
  C  C485  1  0.69067000  0.45657000  0.38662000  1.0
  C  C486  1  0.13553000  0.60537000  0.90581000  1.0
  C  C487  1  0.15022000  0.62330000  0.88706000  1.0
  C  C488  1  0.16995000  0.63745000  0.86459000  1.0
  C  C489  1  0.18810000  0.64700000  0.84661000  1.0
  C  C490  1  0.62978000  0.13642000  0.51146000  1.0
  C  C491  1  0.64583000  0.15379000  0.51175000  1.0
  C  C492  1  0.66716000  0.17461000  0.50467000  1.0
  C  C493  1  0.68624000  0.19154000  0.49702000  1.0
  C  C494  1  0.14440000  0.52345000  0.63856000  1.0
  C  C495  1  0.15726000  0.52338000  0.65815000  1.0
  C  C496  1  0.17480000  0.53019000  0.67530000  1.0
  C  C497  1  0.19154000  0.53674000  0.68797000  1.0
  N  N498  1  0.08272000  0.52744000  0.55967000  1.0
  N  N499  1  0.98399000  0.47680000  0.50741000  1.0
  N  N500  1  0.58998000  0.47520000  0.08657000  1.0
  N  N501  1  0.49929000  0.52908000  0.97573000  1.0
  N  N502  1  0.09008000  0.94951000  0.56504000  1.0
  N  N503  1  0.99908000  0.06061000  0.50845000  1.0
  N  N504  1  0.58443000  0.47573000  0.50881000  1.0
  N  N505  1  0.48435000  0.52511000  0.56106000  1.0
  N  N506  1  0.07269000  0.52698000  0.97997000  1.0
  N  N507  1  0.97408000  0.47443000  0.08228000  1.0
  N  N508  1  0.56845000  0.06091000  0.50692000  1.0
  N  N509  1  0.47847000  0.94985000  0.56286000  1.0
  N  N510  1  0.31475000  0.75114000  0.58161000  1.0
  N  N511  1  0.25302000  0.69938000  0.58319000  1.0
  N  N512  1  0.25755000  0.75088000  0.58715000  1.0
  N  N513  1  0.31382000  0.69554000  0.58593000  1.0
  N  N514  1  0.81131000  0.43881000  0.28864000  1.0
  N  N515  1  0.75712000  0.43812000  0.34694000  1.0
  N  N516  1  0.75432000  0.44167000  0.29146000  1.0
  N  N517  1  0.81818000  0.44070000  0.34115000  1.0
  N  N518  1  0.31030000  0.74565000  0.73345000  1.0
  N  N519  1  0.25539000  0.68716000  0.79011000  1.0
  N  N520  1  0.25366000  0.74320000  0.73866000  1.0
  N  N521  1  0.31737000  0.69293000  0.78787000  1.0
  N  N522  1  0.80996000  0.30457000  0.48144000  1.0
  N  N523  1  0.75426000  0.24745000  0.48094000  1.0
  N  N524  1  0.75281000  0.29966000  0.48461000  1.0
  N  N525  1  0.81601000  0.24916000  0.48455000  1.0
  N  N526  1  0.31306000  0.53914000  0.74243000  1.0
  N  N527  1  0.25181000  0.53967000  0.79429000  1.0
  N  N528  1  0.25502000  0.54414000  0.73863000  1.0
  N  N529  1  0.31271000  0.54294000  0.79438000  1.0
  N  N530  1  0.81341000  0.29293000  0.28505000  1.0
  N  N531  1  0.75215000  0.24224000  0.33751000  1.0
  N  N532  1  0.75632000  0.29728000  0.28568000  1.0
  N  N533  1  0.81347000  0.24212000  0.34118000  1.0
  O  O534  1  0.97854000  0.44493000  0.55809000  1.0
  O  O535  1  0.06486000  0.48912000  0.60382000  1.0
  O  O536  1  0.08826000  0.55744000  0.50870000  1.0
  O  O537  1  0.00330000  0.51476000  0.46399000  1.0
  O  O538  1  0.51837000  0.57273000  0.97045000  1.0
  O  O539  1  0.59645000  0.52623000  0.06645000  1.0
  O  O540  1  0.57153000  0.43149000  0.09100000  1.0
  O  O541  1  0.49250000  0.47824000  0.99535000  1.0
  O  O542  1  0.01795000  0.06530000  0.54730000  1.0
  O  O543  1  0.09656000  0.96933000  0.59622000  1.0
  O  O544  1  0.07189000  0.94567000  0.52525000  1.0
  O  O545  1  0.99224000  0.04134000  0.47690000  1.0
  O  O546  1  0.47852000  0.55749000  0.51038000  1.0
  O  O547  1  0.56664000  0.51594000  0.46508000  1.0
  O  O548  1  0.58967000  0.44402000  0.55984000  1.0
  O  O549  1  0.50339000  0.48665000  0.60483000  1.0
  O  O550  1  0.96871000  0.52522000  0.06497000  1.0
  O  O551  1  0.05518000  0.57126000  0.97557000  1.0
  O  O552  1  0.07768000  0.47566000  0.99977000  1.0
  O  O553  1  0.99302000  0.43083000  0.08660000  1.0
  O  O554  1  0.49789000  0.94537000  0.52425000  1.0
  O  O555  1  0.57356000  0.04121000  0.47544000  1.0
  O  O556  1  0.55099000  0.06512000  0.54653000  1.0
  O  O557  1  0.47166000  0.96826000  0.59505000  1.0
  O  O558  1  0.28303000  0.74170000  0.54476000  1.0
  O  O559  1  0.28596000  0.70103000  0.62654000  1.0
  O  O560  1  0.78595000  0.39702000  0.34042000  1.0
  O  O561  1  0.78539000  0.47914000  0.30089000  1.0
  O  O562  1  0.28485000  0.69314000  0.74385000  1.0
  O  O563  1  0.28468000  0.73257000  0.78642000  1.0
  O  O564  1  0.78329000  0.29366000  0.44049000  1.0
  O  O565  1  0.78410000  0.25220000  0.52219000  1.0
  O  O566  1  0.28301000  0.50138000  0.78934000  1.0
  O  O567  1  0.28322000  0.58351000  0.74888000  1.0
  O  O568  1  0.78311000  0.24498000  0.29606000  1.0
  O  O569  1  0.78414000  0.28771000  0.33540000  1.0
