# generated using pymatgen
data_Pr2H30(C3O)15
_symmetry_space_group_name_H-M   'P 1'
_cell_length_a   15.79260000
_cell_length_b   16.80190000
_cell_length_c   42.99370000
_cell_angle_alpha   92.00600000
_cell_angle_beta   90.63600000
_cell_angle_gamma   114.07800000
_symmetry_Int_Tables_number   1
_chemical_formula_structural   Pr2H30(C3O)15
_chemical_formula_sum   'Pr6 H90 C135 O45'
_cell_volume   10405.16518415
_cell_formula_units_Z   3
loop_
 _symmetry_equiv_pos_site_id
 _symmetry_equiv_pos_as_xyz
  1  'x, y, z'
loop_
 _atom_site_type_symbol
 _atom_site_label
 _atom_site_symmetry_multiplicity
 _atom_site_fract_x
 _atom_site_fract_y
 _atom_site_fract_z
 _atom_site_occupancy
  C  C0  1  0.97966000  0.06718000  0.04119000  1.0
  C  C1  1  0.77380000  0.00360000  0.98696000  1.0
  C  C2  1  0.80620000  0.71794000  0.00755000  1.0
  C  C3  1  0.18620000  0.23436000  0.99313000  1.0
  C  C4  1  0.12930000  0.98138000  0.98912000  1.0
  C  C5  1  0.95384000  0.93706000  0.93583000  1.0
  C  C6  1  0.93012000  0.91156000  0.57348000  1.0
  C  C7  1  0.77828000  0.96396000  0.64400000  1.0
  C  C8  1  0.05932000  0.21320000  0.64941000  1.0
  C  C9  1  0.97718000  0.75942000  0.64858000  1.0
  C  C10  1  0.16254000  0.98722000  0.63672000  1.0
  C  C11  1  0.99796000  0.01712000  0.70775000  1.0
  C  C12  1  0.77072000  0.81680000  0.24902000  1.0
  C  C13  1  0.86624000  0.02882000  0.29609000  1.0
  C  C14  1  0.11872000  0.04682000  0.27731000  1.0
  C  C15  1  0.61990000  0.64870000  0.31096000  1.0
  C  C16  1  0.87438000  0.66808000  0.29622000  1.0
  C  C17  1  0.97282000  0.88648000  0.34173000  1.0
  C  C18  1  0.67958000  0.00154000  0.98635000  1.0
  C  C19  1  0.66536000  0.07882000  0.98737000  1.0
  C  C20  1  0.57538000  0.07506000  0.98800000  1.0
  C  C21  1  0.49852000  0.99406000  0.98752000  1.0
  C  C22  1  0.51272000  0.91708000  0.98578000  1.0
  C  C23  1  0.60220000  0.92070000  0.98533000  1.0
  C  C24  1  0.22192000  0.98090000  0.98824500  1.0
  C  C25  1  0.28662000  0.03326000  0.96736000  1.0
  C  C26  1  0.37648000  0.03770000  0.96744000  1.0
  C  C27  1  0.40334000  0.98956000  0.98834000  1.0
  C  C28  1  0.33852000  0.93670000  0.00950000  1.0
  C  C29  1  0.24766000  0.93138000  0.00886000  1.0
  C  C30  1  0.39570000  0.93960000  0.05832000  1.0
  C  C31  1  0.00312000  0.68690000  0.65390000  1.0
  C  C32  1  0.09210000  0.69544000  0.64565000  1.0
  C  C33  1  0.11836000  0.62696000  0.64900000  1.0
  C  C34  1  0.05484000  0.54774000  0.65953000  1.0
  C  C35  1  0.96670000  0.53948000  0.66883000  1.0
  C  C36  1  0.94098000  0.60922000  0.66617000  1.0
  C  C37  1  0.07732000  0.30532000  0.65254000  1.0
  C  C38  1  0.07590000  0.34348000  0.68194000  1.0
  C  C39  1  0.07416000  0.42556000  0.68434000  1.0
  C  C40  1  0.07596000  0.47076000  0.65744000  1.0
  C  C41  1  0.08506000  0.43562000  0.62802000  1.0
  C  C42  1  0.08386000  0.35218000  0.62576000  1.0
  C  C43  1  0.17506000  0.51612000  0.58989000  1.0
  C  C44  1  0.19364000  0.13424000  0.28035000  1.0
  C  C45  1  0.27114000  0.14958000  0.29971000  1.0
  C  C46  1  0.33952000  0.23388000  0.30443000  1.0
  C  C47  1  0.33194000  0.30390000  0.28953000  1.0
  C  C48  1  0.25564000  0.28778000  0.26934000  1.0
  C  C49  1  0.18668000  0.20352000  0.26493000  1.0
  C  C50  1  0.54542000  0.56124000  0.30599000  1.0
  C  C51  1  0.56772000  0.48998000  0.29944000  1.0
  C  C52  1  0.49800000  0.40692000  0.29398000  1.0
  C  C53  1  0.40430000  0.39324000  0.29507000  1.0
  C  C54  1  0.38128000  0.46480000  0.30199000  1.0
  C  C55  1  0.45208000  0.54856000  0.30684000  1.0
  C  C56  1  0.26030000  0.43736000  0.33404000  1.0
  C  C57  1  0.86762000  0.12278000  0.29605000  1.0
  C  C58  1  0.94776000  0.19854000  0.28956000  1.0
  C  C59  1  0.94852000  0.28442000  0.28998000  1.0
  C  C60  1  0.86892000  0.30096000  0.29688000  1.0
  C  C61  1  0.78844000  0.22460000  0.30300000  1.0
  C  C62  1  0.78810000  0.13902000  0.30288000  1.0
  C  C63  1  0.87318000  0.57428000  0.29685000  1.0
  C  C64  1  0.93080000  0.54764000  0.27787000  1.0
  C  C65  1  0.92910000  0.46160000  0.27805000  1.0
  C  C66  1  0.87008000  0.39558000  0.29739000  1.0
  C  C67  1  0.81394000  0.42316000  0.31732000  1.0
  C  C68  1  0.81514000  0.50930000  0.31653000  1.0
  C  C69  1  0.80490000  0.37674000  0.36649000  1.0
  C  C70  1  0.28192000  0.29640000  0.00135000  1.0
  C  C71  1  0.35618000  0.27300000  0.99532000  1.0
  C  C72  1  0.44756000  0.33282000  0.00107000  1.0
  C  C73  1  0.46648000  0.41716000  0.01317000  1.0
  C  C74  1  0.39214000  0.43968000  0.02030000  1.0
  C  C75  1  0.30050000  0.37968000  0.01446000  1.0
  C  C76  1  0.73320000  0.63084000  0.01222000  1.0
  C  C77  1  0.70026000  0.57138000  0.98664000  1.0
  C  C78  1  0.61620000  0.49876000  0.98793000  1.0
  C  C79  1  0.56296000  0.48450000  0.01475000  1.0
  C  C80  1  0.59958000  0.53992000  0.04150000  1.0
  C  C81  1  0.68448000  0.61300000  0.04004000  1.0
  C  C82  1  0.57492000  0.47222000  0.08720000  1.0
  C  C83  1  0.68750000  0.96626000  0.64512000  1.0
  C  C84  1  0.68108000  0.04504000  0.65347000  1.0
  C  C85  1  0.59552000  0.04960000  0.65313000  1.0
  C  C86  1  0.51582000  0.97558000  0.64436000  1.0
  C  C87  1  0.52188000  0.89658000  0.63616000  1.0
  C  C88  1  0.60756000  0.89176000  0.63673000  1.0
  C  C89  1  0.25394000  0.98814000  0.63967000  1.0
  C  C90  1  0.32918000  0.05078000  0.62524000  1.0
  C  C91  1  0.41524000  0.04688000  0.62707000  1.0
  C  C92  1  0.42620000  0.98110000  0.64373000  1.0
  C  C93  1  0.35142000  0.92118000  0.65973000  1.0
  C  C94  1  0.26532000  0.92466000  0.65729000  1.0
  C  C95  1  0.38530000  0.88944000  0.70787000  1.0
  C  C96  1  0.00310000  0.01308000  0.74170000  1.0
  C  C97  1  0.04158000  0.08960000  0.76076000  1.0
  C  C98  1  0.04554000  0.08454000  0.79308000  1.0
  C  C99  1  0.01084000  0.00294000  0.80666000  1.0
  C  C100  1  0.97158000  0.92670000  0.78749000  1.0
  C  C101  1  0.96844000  0.93170000  0.75531000  1.0
  C  C102  1  0.98166000  0.96376000  0.90421000  1.0
  C  C103  1  0.96206000  0.02976000  0.89114000  1.0
  C  C104  1  0.97604000  0.04550000  0.85955000  1.0
  C  C105  1  0.01106000  0.99626000  0.84082000  1.0
  C  C106  1  0.03870000  0.93540000  0.85471000  1.0
  C  C107  1  0.02198000  0.91830000  0.88612000  1.0
  C  C108  1  0.17432000  0.93510000  0.83831000  1.0
  C  C109  1  0.93136000  0.90924000  0.53937000  1.0
  C  C110  1  0.99360000  0.98088000  0.52379000  1.0
  C  C111  1  0.99872000  0.97638000  0.49147000  1.0
  C  C112  1  0.94070000  0.90074000  0.47434000  1.0
  C  C113  1  0.87720000  0.82978000  0.48981000  1.0
  C  C114  1  0.87292000  0.83380000  0.52216000  1.0
  C  C115  1  0.96324000  0.88626000  0.37554000  1.0
  C  C116  1  0.03998000  0.90090000  0.39517000  1.0
  C  C117  1  0.03222000  0.90594000  0.42736000  1.0
  C  C118  1  0.94740000  0.89556000  0.44032000  1.0
  C  C119  1  0.86994000  0.88072000  0.42067000  1.0
  C  C120  1  0.87818000  0.87542000  0.38838000  1.0
  C  C121  1  0.78020000  0.95110000  0.43535000  1.0
  C  C122  1  0.79816000  0.84874000  0.21781000  1.0
  C  C123  1  0.74194000  0.87582000  0.19933000  1.0
  C  C124  1  0.77234000  0.91070000  0.17039000  1.0
  C  C125  1  0.85934000  0.91914000  0.15978000  1.0
  C  C126  1  0.91538000  0.89262000  0.17850000  1.0
  C  C127  1  0.88444000  0.85636000  0.20698000  1.0
  C  C128  1  0.94956000  0.03048000  0.07157000  1.0
  C  C129  1  0.92434000  0.07666000  0.09473000  1.0
  C  C130  1  0.89550000  0.04008000  0.12346000  1.0
  C  C131  1  0.89250000  0.95732000  0.12952000  1.0
  C  C132  1  0.91878000  0.91104000  0.10627000  1.0
  C  C133  1  0.94592000  0.94774000  0.07738000  1.0
  C  C134  1  0.00012000  0.82756000  0.11425000  1.0
  H  H135  1  0.45448000  0.85390000  0.98457000  1.0
  H  H136  1  0.72352000  0.14200000  0.98823000  1.0
  H  H137  1  0.56580000  0.13536000  0.98931000  1.0
  H  H138  1  0.61038000  0.85974000  0.98406000  1.0
  H  H139  1  0.26770000  0.07086000  0.95084000  1.0
  H  H140  1  0.42486000  0.07814000  0.95089000  1.0
  H  H141  1  0.19848000  0.89078000  0.02518000  1.0
  H  H142  1  0.34068000  0.95554000  0.06932000  1.0
  H  H143  1  0.45872000  0.00012000  0.05452000  1.0
  H  H144  1  0.41590000  0.90110000  0.07500000  1.0
  H  H145  1  0.91674000  0.47812000  0.67692000  1.0
  H  H146  1  0.14104000  0.75420000  0.63572000  1.0
  H  H147  1  0.18724000  0.63516000  0.64246000  1.0
  H  H148  1  0.87210000  0.60154000  0.67271000  1.0
  H  H149  1  0.07034000  0.30786000  0.70289000  1.0
  H  H150  1  0.06710000  0.45208000  0.70701000  1.0
  H  H151  1  0.08424000  0.32300000  0.60291000  1.0
  H  H152  1  0.19222000  0.46590000  0.57731000  1.0
  H  H153  1  0.22880000  0.55014000  0.60846000  1.0
  H  H154  1  0.17822000  0.56566000  0.57302000  1.0
  H  H155  1  0.24944000  0.34014000  0.25688000  1.0
  H  H156  1  0.27758000  0.09688000  0.31190000  1.0
  H  H157  1  0.39750000  0.24458000  0.32019000  1.0
  H  H158  1  0.12822000  0.19244000  0.24935000  1.0
  H  H159  1  0.63914000  0.49860000  0.29781000  1.0
  H  H160  1  0.51750000  0.35334000  0.28847000  1.0
  H  H161  1  0.43380000  0.60324000  0.31162000  1.0
  H  H162  1  0.30050000  0.49372000  0.35027000  1.0
  H  H163  1  0.26386000  0.37642000  0.34202000  1.0
  H  H164  1  0.18654000  0.42768000  0.33477000  1.0
  H  H165  1  0.72364000  0.22984000  0.30741000  1.0
  H  H166  1  0.01144000  0.19192000  0.28460000  1.0
  H  H167  1  0.01320000  0.33854000  0.28529000  1.0
  H  H168  1  0.72382000  0.08470000  0.30785000  1.0
  H  H169  1  0.97746000  0.59352000  0.26226000  1.0
  H  H170  1  0.97414000  0.44666000  0.26234000  1.0
  H  H171  1  0.77080000  0.52556000  0.33220000  1.0
  H  H172  1  0.82514000  0.44350000  0.37720000  1.0
  H  H173  1  0.86676000  0.36134000  0.36381000  1.0
  H  H174  1  0.75850000  0.33004000  0.38287000  1.0
  H  H175  1  0.40494000  0.50488000  0.02912000  1.0
  H  H176  1  0.34396000  0.20912000  0.98544000  1.0
  H  H177  1  0.50362000  0.31390000  0.99536000  1.0
  H  H178  1  0.24448000  0.39924000  0.01945000  1.0
  H  H179  1  0.73666000  0.58394000  0.96492000  1.0
  H  H180  1  0.58984000  0.45698000  0.96714000  1.0
  H  H181  1  0.70864000  0.65860000  0.05997000  1.0
  H  H182  1  0.64984000  0.50334000  0.09422000  1.0
  H  H183  1  0.55710000  0.40700000  0.07546000  1.0
  H  H184  1  0.53478000  0.46142000  0.10883000  1.0
  H  H185  1  0.46062000  0.83914000  0.62894000  1.0
  H  H186  1  0.74210000  0.10328000  0.66018000  1.0
  H  H187  1  0.59148000  0.11074000  0.65978000  1.0
  H  H188  1  0.61146000  0.83064000  0.62998000  1.0
  H  H189  1  0.32070000  0.10066000  0.61187000  1.0
  H  H190  1  0.47274000  0.09388000  0.61494000  1.0
  H  H191  1  0.20772000  0.87852000  0.66962000  1.0
  H  H192  1  0.32944000  0.90410000  0.71885000  1.0
  H  H193  1  0.45268000  0.94780000  0.70947000  1.0
  H  H194  1  0.39394000  0.83822000  0.72146000  1.0
  H  H195  1  0.94172000  0.86302000  0.79740000  1.0
  H  H196  1  0.06872000  0.15318000  0.75073000  1.0
  H  H197  1  0.07580000  0.14420000  0.80743000  1.0
  H  H198  1  0.93758000  0.87172000  0.74114000  1.0
  H  H199  1  0.93124000  0.06578000  0.90488000  1.0
  H  H200  1  0.95492000  0.09294000  0.84944000  1.0
  H  H201  1  0.03894000  0.86814000  0.89614000  1.0
  H  H202  1  0.20334000  0.94250000  0.86250000  1.0
  H  H203  1  0.19550000  0.99988000  0.82780000  1.0
  H  H204  1  0.20510000  0.89748000  0.82428000  1.0
  H  H205  1  0.83224000  0.77076000  0.47690000  1.0
  H  H206  1  0.03960000  0.03966000  0.53660000  1.0
  H  H207  1  0.04782000  0.03186000  0.47980000  1.0
  H  H208  1  0.82434000  0.77772000  0.53369000  1.0
  H  H209  1  0.10630000  0.90978000  0.38564000  1.0
  H  H210  1  0.09236000  0.91754000  0.44220000  1.0
  H  H211  1  0.81828000  0.86398000  0.37347000  1.0
  H  H212  1  0.78236000  0.97888000  0.41208000  1.0
  H  H213  1  0.83568000  0.99790000  0.45126000  1.0
  H  H214  1  0.71274000  0.94186000  0.44552000  1.0
  H  H215  1  0.98408000  0.90162000  0.17159000  1.0
  H  H216  1  0.67522000  0.87080000  0.20733000  1.0
  H  H217  1  0.72812000  0.93122000  0.15633000  1.0
  H  H218  1  0.92908000  0.83572000  0.22072000  1.0
  H  H219  1  0.92648000  0.14066000  0.09059000  1.0
  H  H220  1  0.87578000  0.07656000  0.14106000  1.0
  H  H221  1  0.96588000  0.91190000  0.05967000  1.0
  H  H222  1  0.05198000  0.88740000  0.12660000  1.0
  H  H223  1  0.02654000  0.81936000  0.09105000  1.0
  H  H224  1  0.99444000  0.77118000  0.12808000  1.0
  O  O225  1  0.84560000  0.07860000  0.98032000  1.0
  O  O226  1  0.77926000  0.92862000  0.99396000  1.0
  O  O227  1  0.85034000  0.77536000  0.03005000  1.0
  O  O228  1  0.81840000  0.75260000  0.98032000  1.0
  O  O229  1  0.92914000  0.97928000  0.95664000  1.0
  O  O230  1  0.94258000  0.86290000  0.94659000  1.0
  O  O231  1  0.05810000  0.90796000  0.99687000  1.0
  O  O232  1  0.12448000  0.05772000  0.98238000  1.0
  O  O233  1  0.16590000  0.15604000  0.98050000  1.0
  O  O234  1  0.11196000  0.24980000  0.99758000  1.0
  O  O235  1  0.99540000  0.02718000  0.01786000  1.0
  O  O236  1  0.98570000  0.14078000  0.03186000  1.0
  O  O237  1  0.78856000  0.89148000  0.64147000  1.0
  O  O238  1  0.85202000  0.03602000  0.64471000  1.0
  O  O239  1  0.04186000  0.16928000  0.62271000  1.0
  O  O240  1  0.04422000  0.16280000  0.67313000  1.0
  O  O241  1  0.97370000  0.94722000  0.68924000  1.0
  O  O242  1  0.01934000  0.08982000  0.69365000  1.0
  O  O243  1  0.14858000  0.05664000  0.64239000  1.0
  O  O244  1  0.09018000  0.91250000  0.63271000  1.0
  O  O245  1  0.03432000  0.83082000  0.63600000  1.0
  O  O246  1  0.89866000  0.76342000  0.65574000  1.0
  O  O247  1  0.97542000  0.98260000  0.59070000  1.0
  O  O248  1  0.89188000  0.84184000  0.58892000  1.0
  O  O249  1  0.79476000  0.96554000  0.31006000  1.0
  O  O250  1  0.93668000  0.01308000  0.28251000  1.0
  O  O251  1  0.03092000  0.03258000  0.27216000  1.0
  O  O252  1  0.13092000  0.97526000  0.28193000  1.0
  O  O253  1  0.91534000  0.89136000  0.32178000  1.0
  O  O254  1  0.04318000  0.88882000  0.32664000  1.0
  O  O255  1  0.94578000  0.73122000  0.28223000  1.0
  O  O256  1  0.80310000  0.68354000  0.30923000  1.0
  O  O257  1  0.70782000  0.66282000  0.31530000  1.0
  O  O258  1  0.60738000  0.72106000  0.30943000  1.0
  O  O259  1  0.82418000  0.80606000  0.26906000  1.0
  O  O260  1  0.70328000  0.82040000  0.26428000  1.0
  O  O261  1  0.36278000  0.88858000  0.03048000  1.0
  O  O262  1  0.08406000  0.47808000  0.60113000  1.0
  O  O263  1  0.28982000  0.45406000  0.30319000  1.0
  O  O264  1  0.75586000  0.36618000  0.33795000  1.0
  O  O265  1  0.54972000  0.52668000  0.06845000  1.0
  O  O266  1  0.36110000  0.85710000  0.67685000  1.0
  O  O267  1  0.07712000  0.88846000  0.83729000  1.0
  O  O268  1  0.78532000  0.86926000  0.43288000  1.0
  O  O269  1  0.91080000  0.82712000  0.11073000  1.0
  Pr  Pr270  1  0.90694000  0.89438000  0.99786000  1.0
  Pr  Pr271  1  0.00660000  0.11364000  0.97763000  1.0
  Pr  Pr272  1  0.99548000  0.03282000  0.64333000  1.0
  Pr  Pr273  1  0.93872000  0.90436000  0.63756000  1.0
  Pr  Pr274  1  0.97570000  0.88278000  0.27560000  1.0
  Pr  Pr275  1  0.76350000  0.81336000  0.31559000  1.0
