# generated using pymatgen
data_Zr3H14C20O21
_symmetry_space_group_name_H-M   'P 1'
_cell_length_a   14.10610050
_cell_length_b   14.10716667
_cell_length_c   37.33332637
_cell_angle_alpha   79.17541681
_cell_angle_beta   89.57228487
_cell_angle_gamma   60.00250000
_symmetry_Int_Tables_number   1
_chemical_formula_structural   Zr3H14C20O21
_chemical_formula_sum   'Zr18 H84 C120 O126'
_cell_volume   6286.87096495
_cell_formula_units_Z   6
loop_
 _symmetry_equiv_pos_site_id
 _symmetry_equiv_pos_as_xyz
  1  'x, y, z'
loop_
 _atom_site_type_symbol
 _atom_site_label
 _atom_site_symmetry_multiplicity
 _atom_site_fract_x
 _atom_site_fract_y
 _atom_site_fract_z
 _atom_site_occupancy
  C  C0  1  0.85386000  0.62769000  0.82900000  1.0
  C  C1  1  0.26202000  0.58843000  0.82289000  1.0
  C  C2  1  0.87102000  0.30163000  0.83355000  1.0
  C  C3  1  0.71994000  0.50761000  0.93825000  1.0
  C  C4  1  0.61597000  0.26802000  0.83067000  1.0
  C  C5  1  0.31802000  0.72727000  0.73261000  1.0
  C  C6  1  0.23455000  0.87992000  0.82284000  1.0
  C  C7  1  0.63169000  0.78776000  0.73127000  1.0
  C  C8  1  0.50985000  0.39699000  0.92964000  1.0
  C  C9  1  0.53770000  0.92115000  0.81802000  1.0
  C  C10  1  0.23953000  0.74431000  0.47767000  1.0
  C  C11  1  0.60453000  0.30914000  0.50121000  1.0
  C  C12  1  0.93898000  0.70661000  0.49026000  1.0
  C  C13  1  0.09360000  0.78111000  0.59247000  1.0
  C  C14  1  0.64036000  0.97109000  0.49695000  1.0
  C  C15  1  0.72796000  0.31766000  0.40069000  1.0
  C  C16  1  0.86511000  0.34748000  0.49364000  1.0
  C  C17  1  0.10031000  0.01156000  0.39337000  1.0
  C  C18  1  0.77496000  0.98600000  0.60028000  1.0
  C  C19  1  0.20831000  0.05317000  0.47946000  1.0
  C  C20  1  0.50531000  0.54394000  0.15025000  1.0
  C  C21  1  0.44936000  0.17316000  0.17067000  1.0
  C  C22  1  0.17861000  0.84185000  0.15935000  1.0
  C  C23  1  0.48484000  0.65379000  0.26595000  1.0
  C  C24  1  0.14774000  0.13782000  0.16660000  1.0
  C  C25  1  0.50636000  0.08439000  0.06487000  1.0
  C  C26  1  0.74373000  0.92181000  0.16169000  1.0
  C  C27  1  0.58716000  0.70803000  0.06587000  1.0
  C  C28  1  0.36923000  0.95910000  0.26936000  1.0
  C  C29  1  0.78479000  0.57872000  0.14630000  1.0
  C  C30  1  0.61551000  0.16549000  0.83035000  1.0
  C  C31  1  0.56469000  0.12909000  0.85742000  1.0
  C  C32  1  0.62884000  0.13027000  0.79695000  1.0
  C  C33  1  0.54066000  0.02311000  0.81743000  1.0
  C  C34  1  0.59085000  0.06075000  0.78991000  1.0
  C  C35  1  0.52836000  0.05790000  0.85094000  1.0
  C  C36  1  0.53648000  0.97268000  0.49761000  1.0
  C  C37  1  0.45431000  0.04670000  0.51639000  1.0
  C  C38  1  0.50576000  0.94092000  0.46846000  1.0
  C  C39  1  0.31263000  0.05161000  0.47800000  1.0
  C  C40  1  0.39528000  0.97977000  0.45827000  1.0
  C  C41  1  0.34374000  0.08382000  0.50703000  1.0
  C  C42  1  0.04453000  0.24187000  0.16722000  1.0
  C  C43  1  0.95898000  0.28149000  0.13937000  1.0
  C  C44  1  0.05126000  0.31942000  0.18420000  1.0
  C  C45  1  0.88819000  0.47425000  0.14601000  1.0
  C  C46  1  0.97513000  0.43460000  0.17389000  1.0
  C  C47  1  0.88122000  0.39622000  0.12928000  1.0
  C  C48  1  0.51010000  0.41863000  0.49753000  1.0
  C  C49  1  0.40799000  0.44056000  0.48331000  1.0
  C  C50  1  0.52664000  0.50550000  0.50232000  1.0
  C  C51  1  0.33764000  0.63736000  0.47948000  1.0
  C  C52  1  0.44174000  0.61558000  0.49274000  1.0
  C  C53  1  0.32221000  0.54961000  0.47456000  1.0
  C  C54  1  0.49411000  0.44756000  0.15308000  1.0
  C  C55  1  0.58412000  0.33985000  0.16594000  1.0
  C  C56  1  0.38732000  0.46592000  0.14816000  1.0
  C  C57  1  0.45963000  0.26930000  0.16880000  1.0
  C  C58  1  0.36852000  0.37778000  0.15654000  1.0
  C  C59  1  0.56645000  0.25068000  0.17355000  1.0
  C  C60  1  0.15835000  0.59725000  0.81945000  1.0
  C  C61  1  0.06381000  0.70389000  0.81086000  1.0
  C  C62  1  0.15349000  0.50150000  0.83326000  1.0
  C  C63  1  0.95792000  0.61884000  0.83169000  1.0
  C  C64  1  0.05352000  0.51118000  0.84026000  1.0
  C  C65  1  0.96286000  0.71444000  0.81714000  1.0
  C  C66  1  0.50743000  0.16392000  0.03013000  1.0
  C  C67  1  0.59730000  0.13438000  0.00878000  1.0
  C  C68  1  0.41424000  0.27262000  0.01720000  1.0
  C  C69  1  0.50088000  0.31933000  0.96364000  1.0
  C  C70  1  0.40860000  0.34805000  0.98462000  1.0
  C  C71  1  0.59382000  0.21021000  0.97692000  1.0
  C  C72  1  0.72493000  0.96369000  0.63578000  1.0
  C  C73  1  0.78198000  0.92436000  0.67139000  1.0
  C  C74  1  0.63267000  0.95011000  0.63289000  1.0
  C  C75  1  0.65900000  0.85384000  0.69839000  1.0
  C  C76  1  0.59734000  0.90059000  0.66290000  1.0
  C  C77  1  0.75116000  0.86861000  0.70149000  1.0
  C  C78  1  0.17965000  0.99948000  0.36364000  1.0
  C  C79  1  0.26709000  0.89353000  0.35962000  1.0
  C  C80  1  0.17241000  0.09413000  0.33976000  1.0
  C  C81  1  0.32854000  0.97776000  0.30671000  1.0
  C  C82  1  0.24316000  0.08493000  0.31143000  1.0
  C  C83  1  0.33947000  0.88398000  0.33207000  1.0
  C  C84  1  0.70758000  0.52617000  0.97688000  1.0
  C  C85  1  0.61987000  0.52865000  0.99593000  1.0
  C  C86  1  0.76438000  0.57251000  0.99052000  1.0
  C  C87  1  0.63627000  0.63804000  0.03723000  1.0
  C  C88  1  0.73305000  0.62375000  0.02091000  1.0
  C  C89  1  0.58411000  0.58512000  0.02505000  1.0
  C  C90  1  0.24956000  0.75521000  0.69771000  1.0
  C  C91  1  0.29399000  0.76495000  0.66461000  1.0
  C  C92  1  0.15803000  0.73942000  0.69732000  1.0
  C  C93  1  0.14809000  0.75923000  0.63043000  1.0
  C  C94  1  0.10688000  0.74114000  0.66438000  1.0
  C  C95  1  0.24513000  0.76578000  0.63211000  1.0
  C  C96  1  0.65745000  0.41748000  0.36916000  1.0
  C  C97  1  0.69637000  0.48392000  0.34891000  1.0
  C  C98  1  0.54871000  0.44530000  0.35801000  1.0
  C  C99  1  0.52577000  0.59294000  0.30567000  1.0
  C  C100  1  0.48365000  0.53005000  0.32677000  1.0
  C  C101  1  0.63096000  0.57016000  0.31839000  1.0
  C  C102  1  0.96441000  0.19416000  0.83116000  1.0
  C  C103  1  0.03839000  0.18666000  0.80502000  1.0
  C  C104  1  0.97407000  0.09705000  0.85306000  1.0
  C  C105  1  0.13257000  0.98436000  0.82328000  1.0
  C  C106  1  0.05597000  0.99206000  0.84913000  1.0
  C  C107  1  0.12058000  0.08255000  0.80095000  1.0
  C  C108  1  0.92556000  0.61156000  0.48945000  1.0
  C  C109  1  0.96907000  0.52051000  0.51972000  1.0
  C  C110  1  0.85108000  0.62169000  0.46238000  1.0
  C  C111  1  0.86617000  0.44864000  0.49509000  1.0
  C  C112  1  0.81947000  0.54169000  0.46507000  1.0
  C  C113  1  0.93947000  0.43960000  0.52227000  1.0
  C  C114  1  0.06757000  0.85961000  0.15841000  1.0
  C  C115  1  0.99160000  0.92171000  0.12721000  1.0
  C  C116  1  0.03194000  0.83063000  0.19171000  1.0
  C  C117  1  0.84662000  0.92230000  0.16301000  1.0
  C  C118  1  0.92216000  0.86514000  0.19473000  1.0
  C  C119  1  0.88180000  0.95221000  0.12964000  1.0
  H  H120  1  0.54422000  0.63758000  0.74112000  1.0
  H  H121  1  0.81023000  0.48239000  0.86187000  1.0
  H  H122  1  0.42734000  0.82286000  0.85449000  1.0
  H  H123  1  0.46735000  0.43542000  0.85925000  1.0
  H  H124  1  0.53535000  0.74541000  0.91929000  1.0
  H  H125  1  0.36276000  0.76849000  0.91283000  1.0
  H  H126  1  0.71402000  0.52639000  0.72527000  1.0
  H  H127  1  0.61975000  0.42106000  0.74773000  1.0
  H  H128  1  0.86559000  0.09213000  0.40459000  1.0
  H  H129  1  0.07983000  0.75566000  0.51494000  1.0
  H  H130  1  0.03060000  0.13811000  0.52017000  1.0
  H  H131  1  0.69411000  0.08755000  0.52947000  1.0
  H  H132  1  0.10931000  0.98279000  0.58317000  1.0
  H  H133  1  0.96771000  0.16817000  0.57928000  1.0
  H  H134  1  0.84845000  0.90996000  0.40314000  1.0
  H  H135  1  0.69934000  0.10229000  0.39416000  1.0
  H  H136  1  0.43176000  0.94271000  0.07426000  1.0
  H  H137  1  0.38855000  0.68808000  0.18701000  1.0
  H  H138  1  0.72253000  0.74374000  0.18862000  1.0
  H  H139  1  0.33866000  0.07123000  0.19884000  1.0
  H  H140  1  0.72706000  0.62918000  0.24390000  1.0
  H  H141  1  0.72817000  0.78828000  0.24717000  1.0
  H  H142  1  0.32122000  0.88786000  0.05165000  1.0
  H  H143  1  0.21452000  0.07501000  0.08426000  1.0
  H  H144  1  0.47360000  0.23439000  0.88530000  1.0
  H  H145  1  0.66364000  0.16231000  0.77531000  1.0
  H  H146  1  0.55873000  0.00075000  0.75197000  1.0
  H  H147  1  0.49357000  0.02640000  0.87274000  1.0
  H  H148  1  0.47907000  0.15526000  0.53059000  1.0
  H  H149  1  0.56782000  0.89002000  0.45221000  1.0
  H  H150  1  0.29225000  0.98454000  0.42303000  1.0
  H  H151  1  0.28227000  0.13486000  0.52339000  1.0
  H  H152  1  0.90781000  0.18289000  0.13474000  1.0
  H  H153  1  0.12034000  0.29095000  0.20422000  1.0
  H  H154  1  0.93801000  0.58349000  0.17998000  1.0
  H  H155  1  0.81236000  0.42402000  0.10925000  1.0
  H  H156  1  0.40308000  0.34820000  0.45328000  1.0
  H  H157  1  0.60721000  0.48843000  0.51186000  1.0
  H  H158  1  0.40805000  0.76990000  0.48108000  1.0
  H  H159  1  0.24224000  0.56438000  0.46543000  1.0
  H  H160  1  0.70212000  0.32242000  0.19589000  1.0
  H  H161  1  0.31696000  0.54981000  0.13950000  1.0
  H  H162  1  0.25548000  0.33792000  0.16678000  1.0
  H  H163  1  0.63672000  0.16664000  0.18199000  1.0
  H  H164  1  0.06003000  0.80982000  0.77036000  1.0
  H  H165  1  0.22803000  0.42015000  0.84080000  1.0
  H  H166  1  0.98558000  0.43377000  0.86769000  1.0
  H  H167  1  0.88862000  0.79597000  0.80952000  1.0
  H  H168  1  0.68055000  0.98166000  0.00615000  1.0
  H  H169  1  0.34225000  0.29965000  0.03214000  1.0
  H  H170  1  0.29995000  0.47200000  0.94783000  1.0
  H  H171  1  0.66694000  0.18176000  0.96255000  1.0
  H  H172  1  0.84221000  0.00809000  0.68425000  1.0
  H  H173  1  0.58827000  0.97522000  0.60616000  1.0
  H  H174  1  0.48240000  0.86772000  0.67769000  1.0
  H  H175  1  0.80046000  0.83644000  0.72768000  1.0
  H  H176  1  0.24130000  0.77221000  0.37024000  1.0
  H  H177  1  0.10817000  0.17695000  0.34212000  1.0
  H  H178  1  0.28123000  0.16707000  0.27160000  1.0
  H  H179  1  0.40042000  0.80085000  0.32889000  1.0
  H  H180  1  0.60022000  0.40514000  0.00016000  1.0
  H  H181  1  0.83273000  0.57159000  0.97680000  1.0
  H  H182  1  0.81227000  0.63433000  0.05991000  1.0
  H  H183  1  0.51264000  0.58968000  0.03742000  1.0
  H  H184  1  0.44966000  0.68773000  0.66786000  1.0
  H  H185  1  0.12900000  0.72014000  0.72301000  1.0
  H  H186  1  0.01019000  0.69796000  0.64461000  1.0
  H  H187  1  0.28598000  0.77163000  0.60788000  1.0
  H  H188  1  0.79372000  0.51063000  0.37408000  1.0
  H  H189  1  0.51437000  0.39774000  0.37284000  1.0
  H  H190  1  0.34262000  0.60981000  0.29674000  1.0
  H  H191  1  0.66655000  0.61547000  0.30293000  1.0
  H  H192  1  0.07863000  0.29800000  0.79772000  1.0
  H  H193  1  0.91551000  0.10203000  0.87267000  1.0
  H  H194  1  0.08672000  0.83899000  0.85827000  1.0
  H  H195  1  0.17818000  0.08012000  0.78126000  1.0
  H  H196  1  0.99883000  0.54287000  0.56591000  1.0
  H  H197  1  0.81374000  0.69436000  0.43990000  1.0
  H  H198  1  0.71644000  0.50490000  0.44569000  1.0
  H  H199  1  0.97831000  0.36663000  0.54464000  1.0
  H  H200  1  0.04337000  0.89478000  0.08117000  1.0
  H  H201  1  0.08927000  0.78373000  0.21620000  1.0
  H  H202  1  0.82933000  0.90355000  0.23354000  1.0
  H  H203  1  0.82461000  0.99572000  0.10503000  1.0
  O  O204  1  0.54961000  0.34990000  0.80330000  1.0
  O  O205  1  0.66452000  0.27721000  0.85944000  1.0
  O  O206  1  0.42815000  0.50497000  0.91557000  1.0
  O  O207  1  0.60655000  0.35064000  0.91584000  1.0
  O  O208  1  0.60911000  0.83736000  0.84397000  1.0
  O  O209  1  0.46779000  0.91866000  0.79466000  1.0
  O  O210  1  0.27460000  0.63295000  0.84919000  1.0
  O  O211  1  0.33602000  0.53141000  0.80181000  1.0
  O  O212  1  0.78611000  0.67138000  0.85361000  1.0
  O  O213  1  0.84272000  0.57753000  0.80434000  1.0
  O  O214  1  0.35679000  0.62295000  0.75060000  1.0
  O  O215  1  0.35093000  0.79677000  0.74045000  1.0
  O  O216  1  0.83472000  0.38126000  0.80300000  1.0
  O  O217  1  0.82446000  0.30777000  0.86478000  1.0
  O  O218  1  0.71242000  0.68426000  0.74802000  1.0
  O  O219  1  0.52851000  0.83518000  0.74160000  1.0
  O  O220  1  0.26787000  0.79934000  0.85302000  1.0
  O  O221  1  0.29218000  0.88236000  0.79454000  1.0
  O  O222  1  0.58243000  0.76922000  0.90534000  1.0
  O  O223  1  0.37474000  0.69171000  0.91745000  1.0
  O  O224  1  0.53961000  0.45002000  0.74678000  1.0
  O  O225  1  0.77016000  0.47862000  0.74638000  1.0
  O  O226  1  0.63904000  0.46951000  0.81498000  1.0
  O  O227  1  0.57066000  0.57778000  0.88087000  1.0
  O  O228  1  0.54979000  0.62544000  0.76818000  1.0
  O  O229  1  0.73407000  0.51947000  0.85038000  1.0
  O  O230  1  0.69642000  0.43582000  0.92678000  1.0
  O  O231  1  0.72963000  0.58528000  0.91540000  1.0
  O  O232  1  0.61627000  0.69503000  0.80921000  1.0
  O  O233  1  0.41735000  0.66283000  0.81212000  1.0
  O  O234  1  0.46812000  0.75134000  0.84617000  1.0
  O  O235  1  0.49628000  0.48583000  0.85054000  1.0
  O  O236  1  0.63220000  0.05455000  0.47163000  1.0
  O  O237  1  0.72556000  0.90071000  0.52245000  1.0
  O  O238  1  0.78657000  0.07793000  0.58859000  1.0
  O  O239  1  0.80349000  0.90682000  0.58126000  1.0
  O  O240  1  0.21778000  0.96683000  0.50353000  1.0
  O  O241  1  0.11630000  0.13550000  0.45872000  1.0
  O  O242  1  0.68089000  0.27603000  0.52846000  1.0
  O  O243  1  0.61096000  0.25932000  0.47391000  1.0
  O  O244  1  0.23513000  0.79661000  0.50417000  1.0
  O  O245  1  0.15597000  0.76674000  0.45499000  1.0
  O  O246  1  0.67876000  0.26444000  0.41754000  1.0
  O  O247  1  0.83434000  0.28481000  0.40938000  1.0
  O  O248  1  0.95790000  0.75849000  0.45949000  1.0
  O  O249  1  0.92183000  0.73784000  0.52212000  1.0
  O  O250  1  0.08642000  0.92398000  0.40662000  1.0
  O  O251  1  0.05127000  0.10759000  0.40562000  1.0
  O  O252  1  0.84080000  0.29785000  0.52355000  1.0
  O  O253  1  0.90712000  0.30634000  0.46438000  1.0
  O  O254  1  0.16613000  0.95931000  0.56585000  1.0
  O  O255  1  0.90720000  0.15384000  0.58577000  1.0
  O  O256  1  0.67081000  0.08299000  0.41697000  1.0
  O  O257  1  0.92765000  0.88126000  0.40090000  1.0
  O  O258  1  0.85425000  0.95175000  0.47648000  1.0
  O  O259  1  0.95370000  0.97691000  0.54435000  1.0
  O  O260  1  0.88148000  0.07007000  0.43159000  1.0
  O  O261  1  0.02988000  0.83764000  0.50710000  1.0
  O  O262  1  0.98582000  0.81718000  0.58532000  1.0
  O  O263  1  0.15347000  0.78772000  0.56610000  1.0
  O  O264  1  0.04841000  0.98145000  0.46894000  1.0
  O  O265  1  0.82570000  0.17262000  0.48086000  1.0
  O  O266  1  0.99307000  0.10222000  0.51130000  1.0
  O  O267  1  0.76349000  0.06710000  0.51807000  1.0
  O  O268  1  0.20748000  0.15665000  0.14206000  1.0
  O  O269  1  0.17930000  0.04153000  0.19127000  1.0
  O  O270  1  0.46544000  0.95099000  0.25815000  1.0
  O  O271  1  0.30368000  0.94214000  0.24997000  1.0
  O  O272  1  0.71997000  0.56002000  0.16831000  1.0
  O  O273  1  0.76496000  0.67964000  0.12808000  1.0
  O  O274  1  0.50441000  0.08981000  0.19908000  1.0
  O  O275  1  0.39631000  0.17335000  0.14154000  1.0
  O  O276  1  0.56685000  0.54122000  0.17749000  1.0
  O  O277  1  0.43392000  0.63339000  0.12597000  1.0
  O  O278  1  0.41589000  0.12658000  0.08244000  1.0
  O  O279  1  0.59075000  0.97718000  0.07566000  1.0
  O  O280  1  0.23030000  0.83232000  0.12885000  1.0
  O  O281  1  0.21520000  0.84501000  0.19136000  1.0
  O  O282  1  0.49604000  0.71420000  0.07937000  1.0
  O  O283  1  0.63643000  0.76023000  0.07598000  1.0
  O  O284  1  0.68724000  0.93761000  0.19109000  1.0
  O  O285  1  0.72594000  0.88902000  0.13258000  1.0
  O  O286  1  0.72415000  0.57539000  0.23106000  1.0
  O  O287  1  0.65737000  0.84561000  0.25382000  1.0
  O  O288  1  0.23772000  0.12985000  0.08582000  1.0
  O  O289  1  0.28131000  0.87638000  0.07236000  1.0
  O  O290  1  0.33017000  0.92876000  0.14615000  1.0
  O  O291  1  0.50003000  0.80817000  0.21340000  1.0
  O  O292  1  0.44477000  0.91794000  0.10126000  1.0
  O  O293  1  0.41504000  0.74041000  0.17784000  1.0
  O  O294  1  0.39400000  0.75737000  0.25513000  1.0
  O  O295  1  0.55772000  0.60222000  0.24382000  1.0
  O  O296  1  0.55007000  0.74095000  0.13890000  1.0
  O  O297  1  0.52334000  0.96213000  0.14944000  1.0
  O  O298  1  0.64322000  0.78227000  0.18018000  1.0
  O  O299  1  0.38052000  0.00646000  0.18716000  1.0
  O  O300  1  0.60716000  0.03005000  0.75643000  1.0
  O  O301  1  0.54715000  0.16531000  0.88980000  1.0
  O  O302  1  0.37248000  0.94312000  0.42956000  1.0
  O  O303  1  0.48125000  0.08573000  0.54332000  1.0
  O  O304  1  0.98717000  0.50440000  0.19255000  1.0
  O  O305  1  0.95359000  0.20890000  0.12077000  1.0
  O  O306  1  0.46406000  0.69802000  0.49669000  1.0
  O  O307  1  0.39036000  0.35580000  0.47903000  1.0
  O  O308  1  0.26101000  0.40141000  0.15261000  1.0
  O  O309  1  0.68928000  0.32087000  0.16997000  1.0
  O  O310  1  0.05275000  0.41430000  0.85512000  1.0
  O  O311  1  0.07027000  0.79772000  0.79737000  1.0
  O  O312  1  0.31088000  0.44833000  0.97483000  1.0
  O  O313  1  0.69121000  0.03170000  0.01897000  1.0
  O  O314  1  0.50495000  0.89535000  0.65498000  1.0
  O  O315  1  0.87173000  0.93509000  0.67695000  1.0
  O  O316  1  0.22178000  0.18309000  0.28795000  1.0
  O  O317  1  0.28397000  0.79734000  0.38270000  1.0
  O  O318  1  0.79761000  0.66131000  0.03296000  1.0
  O  O319  1  0.56310000  0.48240000  0.98505000  1.0
  O  O320  1  0.02218000  0.71867000  0.66732000  1.0
  O  O321  1  0.38993000  0.76724000  0.66387000  1.0
  O  O322  1  0.38251000  0.54380000  0.31716000  1.0
  O  O323  1  0.80105000  0.46168000  0.35711000  1.0
  O  O324  1  0.05828000  0.90094000  0.87142000  1.0
  O  O325  1  0.03228000  0.28041000  0.78359000  1.0
  O  O326  1  0.74330000  0.55772000  0.43808000  1.0
  O  O327  1  0.04329000  0.50824000  0.54638000  1.0
  O  O328  1  0.89354000  0.83507000  0.22846000  1.0
  O  O329  1  0.02275000  0.95556000  0.09466000  1.0
  Zr  Zr330  1  0.63611000  0.67555000  0.86390000  1.0
  Zr  Zr331  1  0.48751000  0.52322000  0.79287000  1.0
  Zr  Zr332  1  0.66012000  0.42366000  0.87091000  1.0
  Zr  Zr333  1  0.71258000  0.55466000  0.79178000  1.0
  Zr  Zr334  1  0.41166000  0.63780000  0.86740000  1.0
  Zr  Zr335  1  0.45895000  0.77517000  0.78718000  1.0
  Zr  Zr336  1  0.09881000  0.92749000  0.52246000  1.0
  Zr  Zr337  1  0.74023000  0.11495000  0.45995000  1.0
  Zr  Zr338  1  0.88082000  0.89433000  0.53213000  1.0
  Zr  Zr339  1  0.99069000  0.89555000  0.44943000  1.0
  Zr  Zr340  1  0.84429000  0.14068000  0.53693000  1.0
  Zr  Zr341  1  0.95678000  0.14846000  0.45261000  1.0
  Zr  Zr342  1  0.58430000  0.67003000  0.19218000  1.0
  Zr  Zr343  1  0.36597000  0.05070000  0.12890000  1.0
  Zr  Zr344  1  0.33674000  0.88240000  0.20159000  1.0
  Zr  Zr345  1  0.39440000  0.80021000  0.12000000  1.0
  Zr  Zr346  1  0.54728000  0.92168000  0.20553000  1.0
  Zr  Zr347  1  0.61208000  0.84046000  0.12157000  1.0
