# generated using pymatgen
data_Fe2PH40C71(NO4)2
_symmetry_space_group_name_H-M   'P 1'
_cell_length_a   19.00845000
_cell_length_b   29.73860000
_cell_length_c   29.96880997
_cell_angle_alpha   62.01114525
_cell_angle_beta   82.06710075
_cell_angle_gamma   84.74400000
_symmetry_Int_Tables_number   1
_chemical_formula_structural   Fe2PH40C71(NO4)2
_chemical_formula_sum   'Fe4 P2 H80 C142 N4 O16'
_cell_volume   14809.34877793
_cell_formula_units_Z   2
loop_
 _symmetry_equiv_pos_site_id
 _symmetry_equiv_pos_as_xyz
  1  'x, y, z'
loop_
 _atom_site_type_symbol
 _atom_site_label
 _atom_site_symmetry_multiplicity
 _atom_site_fract_x
 _atom_site_fract_y
 _atom_site_fract_z
 _atom_site_occupancy
  C  C0  1  0.68358000  0.05344000  0.92443000  1.0
  C  C1  1  0.76486000  0.90903000  0.05935500  1.0
  C  C2  1  0.51289000  0.94440000  0.10852000  1.0
  C  C3  1  0.74437000  0.06862000  0.08698500  1.0
  C  C4  1  0.88737000  0.02122500  0.03517000  1.0
  C  C5  1  0.58054000  0.86660500  0.04549000  1.0
  C  C6  1  0.60220000  0.04960500  0.02943000  1.0
  C  C7  1  0.73381000  0.86894500  0.19511500  1.0
  C  C8  1  0.69005000  0.32824000  0.43771000  1.0
  C  C9  1  0.73014000  0.28237000  0.45711000  1.0
  C  C10  1  0.73044000  0.25215500  0.50964000  1.0
  C  C11  1  0.69123000  0.26759000  0.54374000  1.0
  C  C12  1  0.65301000  0.31451500  0.52401500  1.0
  C  C13  1  0.65202000  0.34437000  0.47143000  1.0
  C  C14  1  0.69084000  0.32305500  0.33950000  1.0
  C  C15  1  0.75714000  0.31762000  0.31530000  1.0
  C  C16  1  0.76414000  0.28947000  0.28839000  1.0
  C  C17  1  0.70515000  0.26549500  0.28631000  1.0
  C  C18  1  0.63940000  0.26945000  0.31240000  1.0
  C  C19  1  0.63231000  0.29823500  0.33868500  1.0
  C  C20  1  0.71000000  0.42666500  0.33155000  1.0
  C  C21  1  0.72380000  0.44535000  0.27875500  1.0
  C  C22  1  0.74221000  0.49597500  0.24722000  1.0
  C  C23  1  0.74540000  0.52981000  0.26749500  1.0
  C  C24  1  0.73204000  0.51067500  0.32072000  1.0
  C  C25  1  0.71500000  0.45954000  0.35239500  1.0
  C  C26  1  0.69123000  0.53129000  0.78397000  1.0
  C  C27  1  0.63139000  0.51222000  0.77689500  1.0
  C  C28  1  0.61673000  0.46055000  0.80550500  1.0
  C  C29  1  0.66153000  0.42735500  0.84190000  1.0
  C  C30  1  0.72158000  0.44689500  0.84866500  1.0
  C  C31  1  0.73610000  0.49857000  0.81999500  1.0
  C  C32  1  0.66419000  0.62956500  0.78796000  1.0
  C  C33  1  0.61275000  0.60466000  0.82923500  1.0
  C  C34  1  0.58677000  0.62618500  0.86116500  1.0
  C  C35  1  0.61092000  0.67336500  0.85166000  1.0
  C  C36  1  0.66092000  0.69887500  0.80945000  1.0
  C  C37  1  0.68790000  0.67683000  0.77820000  1.0
  C  C38  1  0.70128000  0.62816500  0.68425000  1.0
  C  C39  1  0.68234000  0.67993500  0.65729000  1.0
  C  C40  1  0.68517000  0.70357000  0.60423000  1.0
  C  C41  1  0.70681000  0.67576500  0.57721000  1.0
  C  C42  1  0.72395000  0.62353500  0.60462500  1.0
  C  C43  1  0.72142000  0.60005500  0.65761000  1.0
  C  C44  1  0.44505000  0.95371000  0.13378500  1.0
  C  C45  1  0.38602000  0.97408500  0.10646000  1.0
  C  C46  1  0.32039000  0.98156500  0.13037000  1.0
  C  C47  1  0.31438000  0.96890500  0.18213500  1.0
  C  C48  1  0.37333000  0.94931000  0.20938500  1.0
  C  C49  1  0.43835000  0.94162500  0.18549000  1.0
  C  C50  1  0.25843000  0.00111500  0.10119000  1.0
  C  C51  1  0.14516000  0.03195000  0.04663000  1.0
  C  C52  1  0.95908000  0.03966000  0.01121000  1.0
  C  C53  1  0.01597000  0.02855500  0.04035000  1.0
  C  C54  1  0.08412000  0.04624500  0.01662000  1.0
  C  C55  1  0.09427000  0.07610000  0.96351500  1.0
  C  C56  1  0.03764000  0.08775000  0.93459500  1.0
  C  C57  1  0.97052000  0.06956000  0.95812000  1.0
  C  C58  1  0.78815000  0.74501500  0.13871000  1.0
  C  C59  1  0.75577000  0.76908000  0.09264500  1.0
  C  C60  1  0.75053000  0.82273500  0.06528000  1.0
  C  C61  1  0.77909000  0.85296000  0.08230000  1.0
  C  C62  1  0.82113000  0.82897000  0.12289000  1.0
  C  C63  1  0.82416000  0.77608500  0.15149000  1.0
  C  C64  1  0.78250000  0.69119000  0.17000500  1.0
  C  C65  1  0.80767000  0.66486500  0.21840000  1.0
  C  C66  1  0.79698000  0.61280500  0.24910000  1.0
  C  C67  1  0.76027000  0.58493000  0.23318500  1.0
  C  C68  1  0.73647000  0.61041000  0.18458500  1.0
  C  C69  1  0.74747000  0.66272500  0.15309000  1.0
  C  C70  1  0.72735000  0.73933500  0.07509000  1.0
  C  C71  1  0.72253000  0.68689500  0.10510500  1.0
  C  C72  1  0.73305000  0.77713500  0.35792500  1.0
  C  C73  1  0.76320000  0.82611500  0.33230500  1.0
  C  C74  1  0.76673000  0.85441500  0.27913500  1.0
  C  C75  1  0.73965000  0.83552500  0.25013500  1.0
  C  C76  1  0.71231000  0.78642000  0.27504500  1.0
  C  C77  1  0.70933000  0.75755500  0.32789000  1.0
  C  C78  1  0.72686000  0.75048500  0.41234500  1.0
  C  C79  1  0.69639000  0.70204500  0.44126000  1.0
  C  C80  1  0.69002000  0.67807500  0.49439500  1.0
  C  C81  1  0.71348000  0.70141500  0.52064500  1.0
  C  C82  1  0.74438000  0.74919000  0.49263000  1.0
  C  C83  1  0.75127000  0.77370000  0.43922500  1.0
  C  C84  1  0.78795000  0.84733500  0.35995500  1.0
  C  C85  1  0.78208000  0.82147500  0.41268500  1.0
  C  C86  1  0.72656000  0.15786500  0.16776000  1.0
  C  C87  1  0.70114000  0.10746000  0.19179000  1.0
  C  C88  1  0.70682000  0.07877500  0.16520000  1.0
  C  C89  1  0.73641000  0.09951500  0.11435500  1.0
  C  C90  1  0.75959000  0.14965500  0.09002000  1.0
  C  C91  1  0.75494000  0.17843500  0.11610000  1.0
  C  C92  1  0.72234000  0.18542500  0.19639000  1.0
  C  C93  1  0.74963000  0.23464500  0.17647000  1.0
  C  C94  1  0.74457000  0.26003500  0.20591000  1.0
  C  C95  1  0.71168000  0.23760500  0.25589000  1.0
  C  C96  1  0.68449000  0.18883000  0.27646000  1.0
  C  C97  1  0.69021000  0.16245500  0.24755500  1.0
  C  C98  1  0.67038000  0.08586000  0.24232000  1.0
  C  C99  1  0.66442000  0.11316500  0.26970000  1.0
  C  C100  1  0.60828000  0.21331500  0.95764000  1.0
  C  C101  1  0.59121000  0.18782500  0.93077500  1.0
  C  C102  1  0.58586000  0.13478500  0.95534500  1.0
  C  C103  1  0.59963000  0.10580500  0.00611000  1.0
  C  C104  1  0.60817000  0.13093000  0.03422500  1.0
  C  C105  1  0.61348000  0.18389500  0.01044500  1.0
  C  C106  1  0.61950000  0.26684000  0.93042000  1.0
  C  C107  1  0.64090000  0.29491000  0.95315500  1.0
  C  C108  1  0.65388000  0.34682000  0.92453500  1.0
  C  C109  1  0.64589000  0.37250500  0.87249000  1.0
  C  C110  1  0.62396000  0.34544500  0.84945500  1.0
  C  C111  1  0.61112000  0.29323000  0.87763000  1.0
  C  C112  1  0.58148000  0.21513500  0.87918500  1.0
  C  C113  1  0.59126000  0.26722000  0.85293500  1.0
  C  C114  1  0.68213000  0.14025000  0.76075000  1.0
  C  C115  1  0.69607000  0.16348000  0.79047000  1.0
  C  C116  1  0.69709000  0.13455000  0.84318000  1.0
  C  C117  1  0.68231000  0.08244500  0.86834500  1.0
  C  C118  1  0.66625000  0.05950000  0.83959000  1.0
  C  C119  1  0.66667333  0.08769000  0.78662000  1.0
  C  C120  1  0.68401000  0.17077000  0.70671000  1.0
  C  C121  1  0.67463000  0.15076500  0.67348000  1.0
  C  C122  1  0.67756000  0.18207500  0.62092000  1.0
  C  C123  1  0.68907000  0.23439500  0.59963000  1.0
  C  C124  1  0.69837000  0.25491500  0.63193000  1.0
  C  C125  1  0.69678000  0.22378000  0.68472000  1.0
  C  C126  1  0.70885000  0.21565000  0.76755000  1.0
  C  C127  1  0.70853000  0.24546500  0.71547500  1.0
  C  C128  1  0.54935000  0.77089500  0.97877500  1.0
  C  C129  1  0.53307000  0.82399500  0.95380500  1.0
  C  C130  1  0.53635000  0.85355500  0.97840000  1.0
  C  C131  1  0.55817000  0.83206000  0.02732000  1.0
  C  C132  1  0.56538000  0.77900500  0.05461000  1.0
  C  C133  1  0.56106000  0.74860000  0.03073500  1.0
  C  C134  1  0.55667000  0.74348000  0.94978500  1.0
  C  C135  1  0.57799000  0.69139500  0.96989500  1.0
  C  C136  1  0.59245000  0.66797500  0.93843000  1.0
  C  C137  1  0.58615000  0.69567500  0.88623500  1.0
  C  C138  1  0.56091000  0.74621500  0.86630500  1.0
  C  C139  1  0.54632000  0.77023500  0.89727500  1.0
  C  C140  1  0.51818000  0.84819000  0.90318000  1.0
  C  C141  1  0.52467000  0.82160500  0.87524500  1.0
  Fe  Fe142  1  0.74610000  0.04926500  0.00953500  1.0
  Fe  Fe143  1  0.63902000  0.88893500  0.11546500  1.0
  Fe  Fe144  1  0.60738000  0.96943000  0.02025500  1.0
  Fe  Fe145  1  0.78632000  0.96613500  0.10635500  1.0
  H  H146  1  0.75969000  0.26906000  0.43177500  1.0
  H  H147  1  0.76107000  0.21656000  0.52362500  1.0
  H  H148  1  0.62195000  0.32727000  0.54932000  1.0
  H  H149  1  0.61989000  0.37926500  0.45724000  1.0
  H  H150  1  0.80304000  0.33610500  0.31623000  1.0
  H  H151  1  0.81559000  0.28645500  0.26915000  1.0
  H  H152  1  0.59310000  0.25144500  0.31128000  1.0
  H  H153  1  0.58090000  0.30176000  0.35766500  1.0
  H  H154  1  0.71953000  0.42116000  0.26137500  1.0
  H  H155  1  0.75353000  0.50850000  0.20679500  1.0
  H  H156  1  0.73270000  0.53542500  0.33799500  1.0
  H  H157  1  0.70398000  0.44621000  0.39293500  1.0
  H  H158  1  0.59543000  0.53742500  0.74989500  1.0
  H  H159  1  0.56954000  0.44678000  0.79992000  1.0
  H  H160  1  0.75750000  0.42221000  0.87597500  1.0
  H  H161  1  0.78194000  0.51309000  0.82633500  1.0
  H  H162  1  0.59385000  0.56795500  0.83778500  1.0
  H  H163  1  0.54807000  0.60596000  0.89334500  1.0
  H  H164  1  0.68084000  0.73513500  0.80164000  1.0
  H  H165  1  0.72854000  0.69617000  0.74717000  1.0
  H  H166  1  0.66615000  0.70240500  0.67692500  1.0
  H  H167  1  0.67057000  0.74368500  0.58430000  1.0
  H  H168  1  0.74145000  0.60112000  0.58502000  1.0
  H  H169  1  0.73687000  0.56012000  0.67761000  1.0
  H  H170  1  0.39087000  0.98314500  0.06669500  1.0
  H  H171  1  0.26438000  0.97427500  0.20151500  1.0
  H  H172  1  0.36852000  0.93979000  0.24922000  1.0
  H  H173  1  0.48311000  0.92601000  0.20760500  1.0
  H  H174  1  0.00746000  0.00528500  0.08120500  1.0
  H  H175  1  0.14599000  0.09046500  0.94413500  1.0
  H  H176  1  0.04589000  0.11079000  0.89375500  1.0
  H  H177  1  0.92750000  0.07927500  0.93462000  1.0
  H  H178  1  0.70727000  0.75693000  0.03833500  1.0
  H  H179  1  0.69762000  0.66529500  0.09114000  1.0
  H  H180  1  0.72310000  0.84090500  0.03140500  1.0
  H  H181  1  0.84857000  0.85116500  0.13482000  1.0
  H  H182  1  0.81760000  0.59444500  0.28569000  1.0
  H  H183  1  0.70707000  0.59004500  0.17158500  1.0
  H  H184  1  0.85453000  0.76075500  0.18363000  1.0
  H  H185  1  0.83454000  0.68365000  0.23415000  1.0
  H  H186  1  0.81122000  0.88459500  0.34069500  1.0
  H  H187  1  0.80114000  0.83930500  0.43287500  1.0
  H  H188  1  0.78797000  0.89233000  0.26062500  1.0
  H  H189  1  0.69181000  0.77038000  0.25377500  1.0
  H  H190  1  0.66558000  0.64129000  0.51505500  1.0
  H  H191  1  0.76390000  0.76721000  0.51251000  1.0
  H  H192  1  0.68689000  0.72045000  0.34411500  1.0
  H  H193  1  0.67655000  0.68176500  0.42402000  1.0
  H  H194  1  0.65056000  0.04755000  0.26082500  1.0
  H  H195  1  0.64005000  0.09536000  0.30869000  1.0
  H  H196  1  0.68798000  0.04015500  0.18426500  1.0
  H  H197  1  0.78219000  0.16674000  0.05062500  1.0
  H  H198  1  0.76564000  0.29784500  0.18917500  1.0
  H  H199  1  0.65976000  0.17104500  0.31541000  1.0
  H  H200  1  0.77380000  0.21667500  0.09465000  1.0
  H  H201  1  0.77577000  0.25447000  0.13843000  1.0
  H  H202  1  0.56755000  0.19594000  0.85868000  1.0
  H  H203  1  0.58456000  0.28711500  0.81276500  1.0
  H  H204  1  0.57346000  0.11588500  0.93416500  1.0
  H  H205  1  0.61071000  0.10948500  0.07475500  1.0
  H  H206  1  0.67009000  0.36701000  0.94336000  1.0
  H  H207  1  0.61863000  0.36482000  0.80904000  1.0
  H  H208  1  0.62163000  0.20062500  0.03431500  1.0
  H  H209  1  0.64923000  0.27771500  0.99275000  1.0
  H  H210  1  0.71891000  0.23365000  0.79013000  1.0
  H  H211  1  0.71834000  0.28575500  0.69908000  1.0
  H  H212  1  0.70855000  0.15326000  0.86480000  1.0
  H  H213  1  0.65424000  0.01947000  0.85791000  1.0
  H  H214  1  0.66982000  0.16529000  0.59681500  1.0
  H  H215  1  0.70824000  0.29521500  0.61575000  1.0
  H  H216  1  0.65422000  0.06741000  0.76703000  1.0
  H  H217  1  0.66564000  0.11098000  0.68690000  1.0
  H  H218  1  0.50448000  0.88858000  0.88430000  1.0
  H  H219  1  0.51557000  0.84195000  0.83551000  1.0
  H  H220  1  0.52660000  0.89438500  0.95758500  1.0
  H  H221  1  0.57894000  0.76117500  0.09330000  1.0
  H  H222  1  0.61168000  0.62866500  0.95457000  1.0
  H  H223  1  0.55493000  0.76745500  0.82601500  1.0
  H  H224  1  0.57034000  0.70818500  0.05312000  1.0
  H  H225  1  0.58633000  0.66832000  0.00931500  1.0
  N  N226  1  0.26786000  0.02432000  0.04961500  1.0
  N  N227  1  0.21239000  0.03950500  0.02289000  1.0
  N  N228  1  0.13560000  0.00923500  0.09826500  1.0
  N  N229  1  0.19121000  0.99418500  0.12505500  1.0
  O  O230  1  0.83969000  0.02353500  0.00562500  1.0
  O  O231  1  0.59728000  0.84894000  0.09282500  1.0
  O  O232  1  0.66073000  0.02181500  0.04498000  1.0
  O  O233  1  0.68841000  0.85436500  0.17394000  1.0
  O  O234  1  0.64552000  0.01054000  0.95028000  1.0
  O  O235  1  0.81118000  0.93433500  0.06458500  1.0
  O  O236  1  0.51895000  0.95586000  0.06007000  1.0
  O  O237  1  0.72840000  0.01957000  0.11164500  1.0
  O  O238  1  0.56753000  0.92525000  0.13443000  1.0
  O  O239  1  0.75798000  0.09105000  0.03716500  1.0
  O  O240  1  0.70116000  0.92748000  0.06266500  1.0
  O  O241  1  0.72025000  0.07501000  0.94413500  1.0
  O  O242  1  0.56215000  0.02912000  0.01320000  1.0
  O  O243  1  0.87188000  0.99876500  0.08514500  1.0
  O  O244  1  0.77278000  0.91107000  0.17272500  1.0
  O  O245  1  0.58805000  0.91484000  0.01065000  1.0
  P  P246  1  0.68026000  0.36235000  0.37076500  1.0
  P  P247  1  0.70573000  0.59830000  0.75185000  1.0
