# generated using pymatgen
data_YbH45(C10O3)3
_symmetry_space_group_name_H-M   'P 1'
_cell_length_a   18.24645000
_cell_length_b   22.63715000
_cell_length_c   34.89800000
_cell_angle_alpha   91.20400000
_cell_angle_beta   93.59300000
_cell_angle_gamma   98.03100000
_symmetry_Int_Tables_number   1
_chemical_formula_structural   YbH45(C10O3)3
_chemical_formula_sum   'Yb4 H180 C120 O36'
_cell_volume   14238.64797001
_cell_formula_units_Z   4
loop_
 _symmetry_equiv_pos_site_id
 _symmetry_equiv_pos_as_xyz
  1  'x, y, z'
loop_
 _atom_site_type_symbol
 _atom_site_label
 _atom_site_symmetry_multiplicity
 _atom_site_fract_x
 _atom_site_fract_y
 _atom_site_fract_z
 _atom_site_occupancy
  C  C0  1  0.09478000  0.88388000  0.98845000  1.0
  C  C1  1  0.06508000  0.11622000  0.96820000  1.0
  C  C2  1  0.98828000  0.03608000  0.06901000  1.0
  C  C3  1  0.84956000  0.16850000  0.98148000  1.0
  C  C4  1  0.89236000  0.92294000  0.98788000  1.0
  C  C5  1  0.96220000  0.01624000  0.90963000  1.0
  C  C6  1  0.62121000  0.40812000  0.49956000  1.0
  C  C7  1  0.52870000  0.62594000  0.48046500  1.0
  C  C8  1  0.42232000  0.52129000  0.55556000  1.0
  C  C9  1  0.31862000  0.63486000  0.48903500  1.0
  C  C10  1  0.40290500  0.40001000  0.48387750  1.0
  C  C11  1  0.50267000  0.51152000  0.40553500  1.0
  C  C12  1  0.05854000  0.03702000  0.56996000  1.0
  C  C13  1  0.04542000  0.04918000  0.60846000  1.0
  C  C14  1  0.98838000  0.01350000  0.62619000  1.0
  C  C15  1  0.94073000  0.96940000  0.60422000  1.0
  C  C16  1  0.94930000  0.95996000  0.56547000  1.0
  C  C17  1  0.01244000  0.99000000  0.54946000  1.0
  C  C18  1  0.98870000  0.97302000  0.41310000  1.0
  C  C19  1  0.00968000  0.98242000  0.37551000  1.0
  C  C20  1  0.99324000  0.03278000  0.35565000  1.0
  C  C21  1  0.95412000  0.07476000  0.37283000  1.0
  C  C22  1  0.93110000  0.06754000  0.41018000  1.0
  C  C23  1  0.94654000  0.01530000  0.42935000  1.0
  C  C24  1  0.54874000  0.55624000  0.06423000  1.0
  C  C25  1  0.54886000  0.56058000  0.10413000  1.0
  C  C26  1  0.51790000  0.51140000  0.12438000  1.0
  C  C27  1  0.47032000  0.46478000  0.10500000  1.0
  C  C28  1  0.46576000  0.46178000  0.06496000  1.0
  C  C29  1  0.51514000  0.50236000  0.04602000  1.0
  C  C30  1  0.49202000  0.48146000  0.90273000  1.0
  C  C31  1  0.48080000  0.47386000  0.86285000  1.0
  C  C32  1  0.42564000  0.50014000  0.84240000  1.0
  C  C33  1  0.38296000  0.53720000  0.86155000  1.0
  C  C34  1  0.39072000  0.54464000  0.90152000  1.0
  C  C35  1  0.44506000  0.51634000  0.92184000  1.0
  C  C36  1  0.81590000  0.22552000  0.97349000  1.0
  C  C37  1  0.56016000  0.45892000  0.92272000  1.0
  C  C38  1  0.55562000  0.39004000  0.92821000  1.0
  C  C39  1  0.63212000  0.37214000  0.94275000  1.0
  C  C40  1  0.63642000  0.30378000  0.94605000  1.0
  C  C41  1  0.71704000  0.29234000  0.95793000  1.0
  C  C42  1  0.73140000  0.22632000  0.96417000  1.0
  C  C43  1  0.81488000  0.89118000  0.98777000  1.0
  C  C44  1  0.56814000  0.61132000  0.04089000  1.0
  C  C45  1  0.64882000  0.64220000  0.04542000  1.0
  C  C46  1  0.65436000  0.70234000  0.02510000  1.0
  C  C47  1  0.73400000  0.73368000  0.02310000  1.0
  C  C48  1  0.73450000  0.79596000  0.00609000  1.0
  C  C49  1  0.81354000  0.82706000  0.00182000  1.0
  C  C50  1  0.12766000  0.82576000  0.99143000  1.0
  C  C51  1  0.33230000  0.57336000  0.92264000  1.0
  C  C52  1  0.34186000  0.64280000  0.92532000  1.0
  C  C53  1  0.27158000  0.66482000  0.94071000  1.0
  C  C54  1  0.27580000  0.73336000  0.94822000  1.0
  C  C55  1  0.20152000  0.74944000  0.96235000  1.0
  C  C56  1  0.19672000  0.81726000  0.96906000  1.0
  C  C57  1  0.10542000  0.17678000  0.98063000  1.0
  C  C58  1  0.39750000  0.42914000  0.04281000  1.0
  C  C59  1  0.39170000  0.36074000  0.03890000  1.0
  C  C60  1  0.31270000  0.33584000  0.02251000  1.0
  C  C61  1  0.29896000  0.26870000  0.01146000  1.0
  C  C62  1  0.21530000  0.25008000  0.00195000  1.0
  C  C63  1  0.19030000  0.18506000  0.98721000  1.0
  C  C64  1  0.25886000  0.67420000  0.49717500  1.0
  C  C65  1  0.00186000  0.91344000  0.43217000  1.0
  C  C66  1  0.08442000  0.89986000  0.43857000  1.0
  C  C67  1  0.09072000  0.83396000  0.45061000  1.0
  C  C68  1  0.17154000  0.81688000  0.45507000  1.0
  C  C69  1  0.17538000  0.75198000  0.46965000  1.0
  C  C70  1  0.25450000  0.73134000  0.47261500  1.0
  C  C71  1  0.34953500  0.36605000  0.50969500  1.0
  C  C72  1  0.12604000  0.07012000  0.55223000  1.0
  C  C73  1  0.11668000  0.13324000  0.53826000  1.0
  C  C74  1  0.19359000  0.16960000  0.53352000  1.0
  C  C75  1  0.19356000  0.22751000  0.51077500  1.0
  C  C76  1  0.26840000  0.26820000  0.51903000  1.0
  C  C77  1  0.28700000  0.31946000  0.49090000  1.0
  C  C78  1  0.68458000  0.37010000  0.49864500  1.0
  C  C79  1  0.90842000  0.12190000  0.43245000  1.0
  C  C80  1  0.82846000  0.13964000  0.42582000  1.0
  C  C81  1  0.82276000  0.20126000  0.44671000  1.0
  C  C82  1  0.74398000  0.22124000  0.44935000  1.0
  C  C83  1  0.74780000  0.28450000  0.46958000  1.0
  C  C84  1  0.67244000  0.30888000  0.47547000  1.0
  C  C85  1  0.57388000  0.67664000  0.50363000  1.0
  C  C86  1  0.88196000  0.93080000  0.54077000  1.0
  C  C87  1  0.86873000  0.86230000  0.53685000  1.0
  C  C88  1  0.78798000  0.84274000  0.52063000  1.0
  C  C89  1  0.76740000  0.77598000  0.50955000  1.0
  C  C90  1  0.68246000  0.75882000  0.50813000  1.0
  C  C91  1  0.65258000  0.69604000  0.49088000  1.0
  C  C92  1  0.94792000  0.00482000  0.86820000  1.0
  C  C93  1  0.96776000  0.02346000  0.66655000  1.0
  C  C94  1  0.02454000  0.05346000  0.69798000  1.0
  C  C95  1  0.99564000  0.02980000  0.73562000  1.0
  C  C96  1  0.02696000  0.06082000  0.77341000  1.0
  C  C97  1  0.98790000  0.02300000  0.80395000  1.0
  C  C98  1  0.00102000  0.04616000  0.84514000  1.0
  C  C99  1  0.00932000  0.05086000  0.11019000  1.0
  C  C100  1  0.02240000  0.04370000  0.31669000  1.0
  C  C101  1  0.97346000  0.00704000  0.28461000  1.0
  C  C102  1  0.97500000  0.04206000  0.24764000  1.0
  C  C103  1  0.95762000  0.00312000  0.21092000  1.0
  C  C104  1  0.96780000  0.04362000  0.17659000  1.0
  C  C105  1  0.96476000  0.01046000  0.13766000  1.0
  C  C106  1  0.53690000  0.51980000  0.36875000  1.0
  C  C107  1  0.54054000  0.50708000  0.16559000  1.0
  C  C108  1  0.48606000  0.52998000  0.19152000  1.0
  C  C109  1  0.52568000  0.54272000  0.23105000  1.0
  C  C110  1  0.47440000  0.53308000  0.26354000  1.0
  C  C111  1  0.52322000  0.53948000  0.30058000  1.0
  C  C112  1  0.48042000  0.52182000  0.33516000  1.0
  C  C113  1  0.39480000  0.52058000  0.59461000  1.0
  C  C114  1  0.40564000  0.48178000  0.80115000  1.0
  C  C115  1  0.45484000  0.51748000  0.77329000  1.0
  C  C116  1  0.43206000  0.49120000  0.73299000  1.0
  C  C117  1  0.46858000  0.52626000  0.70061000  1.0
  C  C118  1  0.42818000  0.50116000  0.66282000  1.0
  C  C119  1  0.45652000  0.53170000  0.62696000  1.0
  H  H120  1  0.06118000  0.93992000  0.51987000  1.0
  H  H121  1  0.13180000  0.07874000  0.63931000  1.0
  H  H122  1  0.90068000  0.90072000  0.62955000  1.0
  H  H123  1  0.95102000  0.03060000  0.48225000  1.0
  H  H124  1  0.00624000  0.91208000  0.34499000  1.0
  H  H125  1  0.89340000  0.11294000  0.33868000  1.0
  H  H126  1  0.57682000  0.46528000  0.01557000  1.0
  H  H127  1  0.53936000  0.63608000  0.12546000  1.0
  H  H128  1  0.45828000  0.39100000  0.12947000  1.0
  H  H129  1  0.48190000  0.56234000  0.96493000  1.0
  H  H130  1  0.56692000  0.46754000  0.83668000  1.0
  H  H131  1  0.35586000  0.60224000  0.83396000  1.0
  H  H132  1  0.84532000  0.24582000  0.94909000  1.0
  H  H133  1  0.60772000  0.47214000  0.90500000  1.0
  H  H134  1  0.53750000  0.36610000  0.90050000  1.0
  H  H135  1  0.67418000  0.39064000  0.92295000  1.0
  H  H136  1  0.61846000  0.28096000  0.91793000  1.0
  H  H137  1  0.75306000  0.31112000  0.93540000  1.0
  H  H138  1  0.71288000  0.19884000  0.93778000  1.0
  H  H139  1  0.83456000  0.25670000  0.99820000  1.0
  H  H140  1  0.57598000  0.48294000  0.95014000  1.0
  H  H141  1  0.51400000  0.37594000  0.94921000  1.0
  H  H142  1  0.64810000  0.39394000  0.97139000  1.0
  H  H143  1  0.59852000  0.28496000  0.96769000  1.0
  H  H144  1  0.73550000  0.31838000  0.98494000  1.0
  H  H145  1  0.69998000  0.20760000  0.98833000  1.0
  H  H146  1  0.78964000  0.89002000  0.95800000  1.0
  H  H147  1  0.55558000  0.60078000  0.01013000  1.0
  H  H148  1  0.68512000  0.61306000  0.03236000  1.0
  H  H149  1  0.62898000  0.69500000  0.99532000  1.0
  H  H150  1  0.76458000  0.70616000  0.00483000  1.0
  H  H151  1  0.70378000  0.79182000  0.97747000  1.0
  H  H152  1  0.84050000  0.80076000  0.98097000  1.0
  H  H153  1  0.78240000  0.91712000  0.00594000  1.0
  H  H154  1  0.53138000  0.64390000  0.04921000  1.0
  H  H155  1  0.66748000  0.65060000  0.07606000  1.0
  H  H156  1  0.62214000  0.73216000  0.04069000  1.0
  H  H157  1  0.76200000  0.73832000  0.05237000  1.0
  H  H158  1  0.70604000  0.82376000  0.02528000  1.0
  H  H159  1  0.84544000  0.82826000  0.03003000  1.0
  H  H160  1  0.08200000  0.78966000  0.98215000  1.0
  H  H161  1  0.27740000  0.55786000  0.90761000  1.0
  H  H162  1  0.35118000  0.66126000  0.89660000  1.0
  H  H163  1  0.22416000  0.65022000  0.91959000  1.0
  H  H164  1  0.28840000  0.75702000  0.92145000  1.0
  H  H165  1  0.15606000  0.73130000  0.94091000  1.0
  H  H166  1  0.19344000  0.83882000  0.94092000  1.0
  H  H167  1  0.14106000  0.81876000  0.02225000  1.0
  H  H168  1  0.32924000  0.55678000  0.95220000  1.0
  H  H169  1  0.39096000  0.65920000  0.94495000  1.0
  H  H170  1  0.25932000  0.64222000  0.96796000  1.0
  H  H171  1  0.32102000  0.74826000  0.97048000  1.0
  H  H172  1  0.19100000  0.72604000  0.98953000  1.0
  H  H173  1  0.24718000  0.83874000  0.98600000  1.0
  H  H174  1  0.08248000  0.18854000  0.00810000  1.0
  H  H175  1  0.34882000  0.44000000  0.05771000  1.0
  H  H176  1  0.40194000  0.34140000  0.06731000  1.0
  H  H177  1  0.27362000  0.34490000  0.04438000  1.0
  H  H178  1  0.31780000  0.24250000  0.03570000  1.0
  H  H179  1  0.18658000  0.25738000  0.02842000  1.0
  H  H180  1  0.20724000  0.15346000  0.00873000  1.0
  H  H181  1  0.09022000  0.20976000  0.95950000  1.0
  H  H182  1  0.39254000  0.44694000  0.01355000  1.0
  H  H183  1  0.43326000  0.34884000  0.01935000  1.0
  H  H184  1  0.29912000  0.36082000  0.99655000  1.0
  H  H185  1  0.32998000  0.26044000  0.98603000  1.0
  H  H186  1  0.19628000  0.28044000  0.97999000  1.0
  H  H187  1  0.21528000  0.17722000  0.95973000  1.0
  H  H188  1  0.26456000  0.68725000  0.52808500  1.0
  H  H189  1  0.97488000  0.90890000  0.45958000  1.0
  H  H190  1  0.11414000  0.93112000  0.46099000  1.0
  H  H191  1  0.06440000  0.82630000  0.47817000  1.0
  H  H192  1  0.20562000  0.84910000  0.47560000  1.0
  H  H193  1  0.15230000  0.74871000  0.49827000  1.0
  H  H194  1  0.29528000  0.76812000  0.48589000  1.0
  H  H195  1  0.20505000  0.64470000  0.49284500  1.0
  H  H196  1  0.97212000  0.87706000  0.41299000  1.0
  H  H197  1  0.11420000  0.90808000  0.41219000  1.0
  H  H198  1  0.05844000  0.80312000  0.42862000  1.0
  H  H199  1  0.19626000  0.82107000  0.42687000  1.0
  H  H200  1  0.13894000  0.71996000  0.44988000  1.0
  H  H201  1  0.27076000  0.72291000  0.44314500  1.0
  H  H202  1  0.32455000  0.39807000  0.52745500  1.0
  H  H203  1  0.17338000  0.07402000  0.57407000  1.0
  H  H204  1  0.08744000  0.15712000  0.55934000  1.0
  H  H205  1  0.21994000  0.18079000  0.56281000  1.0
  H  H206  1  0.14814000  0.25168000  0.51947000  1.0
  H  H207  1  0.26821000  0.28738000  0.54859000  1.0
  H  H208  1  0.23739000  0.34158000  0.48427500  1.0
  H  H209  1  0.38435000  0.34251000  0.52982500  1.0
  H  H210  1  0.14168000  0.04425000  0.52750000  1.0
  H  H211  1  0.08312000  0.12929000  0.51047000  1.0
  H  H212  1  0.22870000  0.14116000  0.51878000  1.0
  H  H213  1  0.18452000  0.21588000  0.47967000  1.0
  H  H214  1  0.31409000  0.24053000  0.51900000  1.0
  H  H215  1  0.30428000  0.30079000  0.46383000  1.0
  H  H216  1  0.70251000  0.36202000  0.52873500  1.0
  H  H217  1  0.91812000  0.11671000  0.46369000  1.0
  H  H218  1  0.78780000  0.10428000  0.43701000  1.0
  H  H219  1  0.84746000  0.20008000  0.47647500  1.0
  H  H220  1  0.70932000  0.18802000  0.46584000  1.0
  H  H221  1  0.77775000  0.28346000  0.49815000  1.0
  H  H222  1  0.63616000  0.27594000  0.49139000  1.0
  H  H223  1  0.73200000  0.39883000  0.48720500  1.0
  H  H224  1  0.94766000  0.16150000  0.42536000  1.0
  H  H225  1  0.81476000  0.14312000  0.39464000  1.0
  H  H226  1  0.85790000  0.23650000  0.43191000  1.0
  H  H227  1  0.71718000  0.22230000  0.42005000  1.0
  H  H228  1  0.78183000  0.31724000  0.45242000  1.0
  H  H229  1  0.64416000  0.31445000  0.44702000  1.0
  H  H230  1  0.57829000  0.66427000  0.53421000  1.0
  H  H231  1  0.83228000  0.94582000  0.55264000  1.0
  H  H232  1  0.87729000  0.84214000  0.56514000  1.0
  H  H233  1  0.75094000  0.85500000  0.54268000  1.0
  H  H234  1  0.79338000  0.74858000  0.53101000  1.0
  H  H235  1  0.66546000  0.76226000  0.53802000  1.0
  H  H236  1  0.68892000  0.66330000  0.50080000  1.0
  H  H237  1  0.54286000  0.71552000  0.50200000  1.0
  H  H238  1  0.88306000  0.94728000  0.51189000  1.0
  H  H239  1  0.90800000  0.84736000  0.51696000  1.0
  H  H240  1  0.77676000  0.86860000  0.49472000  1.0
  H  H241  1  0.78802000  0.76738000  0.48102000  1.0
  H  H242  1  0.65575000  0.79184000  0.49108000  1.0
  H  H243  1  0.65154000  0.69752000  0.45910000  1.0
  H  H244  1  0.89000000  0.01158000  0.85994000  1.0
  H  H245  1  0.91908000  0.04782000  0.66516000  1.0
  H  H246  1  0.02690000  0.10264000  0.69742000  1.0
  H  H247  1  0.93462000  0.03086000  0.73427000  1.0
  H  H248  1  0.01312000  0.10696000  0.77470000  1.0
  H  H249  1  0.92698000  0.01807000  0.79668000  1.0
  H  H250  1  0.98852000  0.09260000  0.84761000  1.0
  H  H251  1  0.95418000  0.95754000  0.86195000  1.0
  H  H252  1  0.94692000  0.97826000  0.67655000  1.0
  H  H253  1  0.08032000  0.04066000  0.69492000  1.0
  H  H254  1  0.00476000  0.98220000  0.73659000  1.0
  H  H255  1  0.08780000  0.06140000  0.77703000  1.0
  H  H256  1  0.00508000  0.97780000  0.80256000  1.0
  H  H257  1  0.05956000  0.04464000  0.85534000  1.0
  H  H258  1  0.00198000  0.09814000  0.11563000  1.0
  H  H259  1  0.02794000  0.09202000  0.31095000  1.0
  H  H260  1  0.91510000  0.99684000  0.29246000  1.0
  H  H261  1  0.93474000  0.07444000  0.24895000  1.0
  H  H262  1  0.90000000  0.97960000  0.20995000  1.0
  H  H263  1  0.92466000  0.07368000  0.17559000  1.0
  H  H264  1  0.90604000  0.99914000  0.12655000  1.0
  H  H265  1  0.06890000  0.04686000  0.11598000  1.0
  H  H266  1  0.07908000  0.03134000  0.31628000  1.0
  H  H267  1  0.99484000  0.96402000  0.28013000  1.0
  H  H268  1  0.03120000  0.06782000  0.24605000  1.0
  H  H269  1  0.99672000  0.96978000  0.21023000  1.0
  H  H270  1  0.02260000  0.07208000  0.18135000  1.0
  H  H271  1  0.98934000  0.96848000  0.14051000  1.0
  H  H272  1  0.57114000  0.48379000  0.36402000  1.0
  H  H273  1  0.54468000  0.45998000  0.17244000  1.0
  H  H274  1  0.43654000  0.49558000  0.19246000  1.0
  H  H275  1  0.56860000  0.51256000  0.23541500  1.0
  H  H276  1  0.44256000  0.48748000  0.26088000  1.0
  H  H277  1  0.56729000  0.51036000  0.29862500  1.0
  H  H278  1  0.44738000  0.47696000  0.33035000  1.0
  H  H279  1  0.57496000  0.56269000  0.37152500  1.0
  H  H280  1  0.59674000  0.53288000  0.17152000  1.0
  H  H281  1  0.46782000  0.57172000  0.18075000  1.0
  H  H282  1  0.55478000  0.58926000  0.23255000  1.0
  H  H283  1  0.43546000  0.56658000  0.26305500  1.0
  H  H284  1  0.55040000  0.58648000  0.30454500  1.0
  H  H285  1  0.44289000  0.55526000  0.34046500  1.0
  H  H286  1  0.36186000  0.47593000  0.59716000  1.0
  H  H287  1  0.41050000  0.43372000  0.79724000  1.0
  H  H288  1  0.51420000  0.51420000  0.78038000  1.0
  H  H289  1  0.44528000  0.44484000  0.73137000  1.0
  H  H290  1  0.52820000  0.52116000  0.70097500  1.0
  H  H291  1  0.43262000  0.45284000  0.65981000  1.0
  H  H292  1  0.50715000  0.51336000  0.61928000  1.0
  H  H293  1  0.35649000  0.55421000  0.59736500  1.0
  H  H294  1  0.34696000  0.48662000  0.79346000  1.0
  H  H295  1  0.44652000  0.56506000  0.77488000  1.0
  H  H296  1  0.37090000  0.48920000  0.72840000  1.0
  H  H297  1  0.46308000  0.57424000  0.70400000  1.0
  H  H298  1  0.36852000  0.50564000  0.66437500  1.0
  H  H299  1  0.47126000  0.58050000  0.63239000  1.0
  O  O300  1  0.94762000  0.07362000  0.05043000  1.0
  O  O301  1  0.02120000  0.99310000  0.05243000  1.0
  O  O302  1  0.92128000  0.17132000  0.98858000  1.0
  O  O303  1  0.95136000  0.89508000  0.98900000  1.0
  O  O304  1  0.91088000  0.98108000  0.98800000  1.0
  O  O305  1  0.00926000  0.98428000  0.92808000  1.0
  O  O306  1  0.81704000  0.11262000  0.97919000  1.0
  O  O307  1  0.92460000  0.05600000  0.92612000  1.0
  O  O308  1  0.02232000  0.88322000  0.98848000  1.0
  O  O309  1  0.13054000  0.93904000  0.99106000  1.0
  O  O310  1  0.00338000  0.11980000  0.94841000  1.0
  O  O311  1  0.04968000  0.07760000  0.99469000  1.0
  O  O312  1  0.38548000  0.55144000  0.52909000  1.0
  O  O313  1  0.47584000  0.48747000  0.54842500  1.0
  O  O314  1  0.33361000  0.58913000  0.51070000  1.0
  O  O315  1  0.47162500  0.38750000  0.48624750  1.0
  O  O316  1  0.40060500  0.45726500  0.47697250  1.0
  O  O317  1  0.54111000  0.48651000  0.43240000  1.0
  O  O318  1  0.35190000  0.63568000  0.45664000  1.0
  O  O319  1  0.44212000  0.53616000  0.41113500  1.0
  O  O320  1  0.54986000  0.38887000  0.49150000  1.0
  O  O321  1  0.63286000  0.46642000  0.50717000  1.0
  O  O322  1  0.47014000  0.63753500  0.46084500  1.0
  O  O323  1  0.50810000  0.57583000  0.49631500  1.0
  O  O324  1  0.03052000  0.97186000  0.51432000  1.0
  O  O325  1  0.08816000  0.09574000  0.62838000  1.0
  O  O326  1  0.88160000  0.93716000  0.62036000  1.0
  O  O327  1  0.91706000  0.00516000  0.46360000  1.0
  O  O328  1  0.04596000  0.94176000  0.35756000  1.0
  O  O329  1  0.94138000  0.12478000  0.35357000  1.0
  O  O330  1  0.53400000  0.48718000  0.01069000  1.0
  O  O331  1  0.58038000  0.61194000  0.12363000  1.0
  O  O332  1  0.42758000  0.42332000  0.12513000  1.0
  O  O333  1  0.45110000  0.52312000  0.96053000  1.0
  O  O334  1  0.52342000  0.43942000  0.84348000  1.0
  O  O335  1  0.32988000  0.56310000  0.84120000  1.0
  Yb  Yb336  1  0.02572000  0.98084000  0.99023000  1.0
  Yb  Yb337  1  0.92528000  0.07512000  0.98801000  1.0
  Yb  Yb338  1  0.51763500  0.48114000  0.49159500  1.0
  Yb  Yb339  1  0.39618000  0.55108500  0.46575500  1.0
