# generated using pymatgen
data_Cd4H30(C9O4)5
_symmetry_space_group_name_H-M   'P 1'
_cell_length_a   12.38470000
_cell_length_b   29.17469028
_cell_length_c   29.17520000
_cell_angle_alpha   73.72866504
_cell_angle_beta   88.38500000
_cell_angle_gamma   88.38737244
_symmetry_Int_Tables_number   1
_chemical_formula_structural   Cd4H30(C9O4)5
_chemical_formula_sum   'Cd12 H90 C135 O60'
_cell_volume   10113.06904064
_cell_formula_units_Z   3
loop_
 _symmetry_equiv_pos_site_id
 _symmetry_equiv_pos_as_xyz
  1  'x, y, z'
loop_
 _atom_site_type_symbol
 _atom_site_label
 _atom_site_symmetry_multiplicity
 _atom_site_fract_x
 _atom_site_fract_y
 _atom_site_fract_z
 _atom_site_occupancy
  C  C0  1  0.26555000  0.68810000  0.56431000  1.0
  C  C1  1  0.93329000  0.68468000  0.67695000  1.0
  C  C2  1  0.98003000  0.61336500  0.57039500  1.0
  C  C3  1  0.67827000  0.70363000  0.54586000  1.0
  C  C4  1  0.99186000  0.78574500  0.57302500  1.0
  C  C5  1  0.96034000  0.56576000  0.56545000  1.0
  C  C6  1  0.94763000  0.52678500  0.60606500  1.0
  C  C7  1  0.56815000  0.69940000  0.52825000  1.0
  C  C8  1  0.46051000  0.69675500  0.46046500  1.0
  C  C9  1  0.36683000  0.69243500  0.48891500  1.0
  C  C10  1  0.37089000  0.69069500  0.53745500  1.0
  C  C11  1  0.47304000  0.69306000  0.55756000  1.0
  C  C12  1  0.55987000  0.70155000  0.47984000  1.0
  C  C13  1  0.13550000  0.35118000  0.95494000  1.0
  C  C14  1  0.98633000  0.83310500  0.58091500  1.0
  C  C15  1  0.97670000  0.87458000  0.54297000  1.0
  C  C16  1  0.86798000  0.07964000  0.23327000  1.0
  C  C17  1  0.89082000  0.68991000  0.72253000  1.0
  C  C18  1  0.13829000  0.09570000  0.47561000  1.0
  C  C19  1  0.87109000  0.22896000  0.43413000  1.0
  C  C20  1  0.82949000  0.11351000  0.56149000  1.0
  C  C21  1  0.55047000  0.11309000  0.48030000  1.0
  C  C22  1  0.82290000  0.13283000  0.38205000  1.0
  C  C23  1  0.63862000  0.58098000  0.98711000  1.0
  C  C24  1  0.91081000  0.63390500  0.85520500  1.0
  C  C25  1  0.95432000  0.50433000  0.96536000  1.0
  C  C26  1  0.22815000  0.58117500  0.97106500  1.0
  C  C27  1  0.94569000  0.68146500  0.95807500  1.0
  C  C28  1  0.59803000  0.52596500  0.38114500  1.0
  C  C29  1  0.91221000  0.40560000  0.39456000  1.0
  C  C30  1  0.90124000  0.51015500  0.46773500  1.0
  C  C31  1  0.19375000  0.53010500  0.36111500  1.0
  C  C32  1  0.88294000  0.52373500  0.29661500  1.0
  C  C33  1  0.23262000  0.93614000  0.78404000  1.0
  C  C34  1  0.96055000  0.88348000  0.68641000  1.0
  C  C35  1  0.89876000  0.99888000  0.72007000  1.0
  C  C36  1  0.64433000  0.91555000  0.78926000  1.0
  C  C37  1  0.93693000  0.84651000  0.84891000  1.0
  C  C38  1  0.51458000  0.34422000  0.13374000  1.0
  C  C39  1  0.78842000  0.41481500  0.19966500  1.0
  C  C40  1  0.84894000  0.35198000  0.07894000  1.0
  C  C41  1  0.11128000  0.36378500  0.14296500  1.0
  C  C42  1  0.82200000  0.25280000  0.22372000  1.0
  C  C43  1  0.91617000  0.48251500  0.60147500  1.0
  C  C44  1  0.89628000  0.47766000  0.55601000  1.0
  C  C45  1  0.91271000  0.51613500  0.51537500  1.0
  C  C46  1  0.89721000  0.44159000  0.64507000  1.0
  C  C47  1  0.87710000  0.04776000  0.69087000  1.0
  C  C48  1  0.84184000  0.13156000  0.68451000  1.0
  C  C49  1  0.82493000  0.14023000  0.63546000  1.0
  C  C50  1  0.83780000  0.10319500  0.61362500  1.0
  C  C51  1  0.86282000  0.05687500  0.64162500  1.0
  C  C52  1  0.82646000  0.17115000  0.70770000  1.0
  C  C53  1  0.86788000  0.08516500  0.71213500  1.0
  C  C54  1  0.90568000  0.37621000  0.03411000  1.0
  C  C55  1  0.04889000  0.37720500  0.97516500  1.0
  C  C56  1  0.03796000  0.42712000  0.95842000  1.0
  C  C57  1  0.96064000  0.45167000  0.97918000  1.0
  C  C58  1  0.89274000  0.42576000  0.01588000  1.0
  C  C59  1  0.98428000  0.35203500  0.01376500  1.0
  C  C60  1  0.44885000  0.08525000  0.48570000  1.0
  C  C61  1  0.37066000  0.00645500  0.49995500  1.0
  C  C62  1  0.26751000  0.02730000  0.49324000  1.0
  C  C63  1  0.25184000  0.07695000  0.48266000  1.0
  C  C64  1  0.34334000  0.10622500  0.47919500  1.0
  C  C65  1  0.38483000  0.95313500  0.51312500  1.0
  C  C66  1  0.46011000  0.03529500  0.49667500  1.0
  C  C67  1  0.33061000  0.56674000  0.99747000  1.0
  C  C68  1  0.41485000  0.52249000  0.07189000  1.0
  C  C69  1  0.51623000  0.53790000  0.05243000  1.0
  C  C70  1  0.52758000  0.56664000  0.00522000  1.0
  C  C71  1  0.43426000  0.58023500  0.97715500  1.0
  C  C72  1  0.40500000  0.49087000  0.12211000  1.0
  C  C73  1  0.32270000  0.53801000  0.04488000  1.0
  C  C74  1  0.30062000  0.55259000  0.35282000  1.0
  C  C75  1  0.40353000  0.62521000  0.32305000  1.0
  C  C76  1  0.49752000  0.59986500  0.34121500  1.0
  C  C77  1  0.49486000  0.55081500  0.36473500  1.0
  C  C78  1  0.39617000  0.52699000  0.37026000  1.0
  C  C79  1  0.40778000  0.67702500  0.29577500  1.0
  C  C80  1  0.30575000  0.60142500  0.32863500  1.0
  C  C81  1  0.53842000  0.93277500  0.80413500  1.0
  C  C82  1  0.44583000  0.98382500  0.84681500  1.0
  C  C83  1  0.34731000  0.97427500  0.82987500  1.0
  C  C84  1  0.34158000  0.94406000  0.80011000  1.0
  C  C85  1  0.43787000  0.92292000  0.78727000  1.0
  C  C86  1  0.44959000  0.01497500  0.87982500  1.0
  C  C87  1  0.54026000  0.96258000  0.83451000  1.0
  C  C88  1  0.41022000  0.36150500  0.11213500  1.0
  C  C89  1  0.31495000  0.41251500  0.04424500  1.0
  C  C90  1  0.21840000  0.40455000  0.07091000  1.0
  C  C91  1  0.21648000  0.37478500  0.11803500  1.0
  C  C92  1  0.31323000  0.35394500  0.13897500  1.0
  C  C93  1  0.31609000  0.44323500  0.99352500  1.0
  C  C94  1  0.41006000  0.39004000  0.06462000  1.0
  C  C95  1  0.76448000  0.73051500  0.76415500  1.0
  C  C96  1  0.79694000  0.69957000  0.80748000  1.0
  C  C97  1  0.87821000  0.66466000  0.80872000  1.0
  C  C98  1  0.92739000  0.66066000  0.76618000  1.0
  C  C99  1  0.67766000  0.76765000  0.76312000  1.0
  C  C100  1  0.80978000  0.72482000  0.72174000  1.0
  C  C101  1  0.90781000  0.27466500  0.40311500  1.0
  C  C102  1  0.02095000  0.31567500  0.33520500  1.0
  C  C103  1  0.99815000  0.35857000  0.34596000  1.0
  C  C104  1  0.92839000  0.35992500  0.38425500  1.0
  C  C105  1  0.88056000  0.31817500  0.41229500  1.0
  C  C106  1  0.09816000  0.31429500  0.29512500  1.0
  C  C107  1  0.97740000  0.27369000  0.36442000  1.0
  C  C108  1  0.93639000  0.81374500  0.89761500  1.0
  C  C109  1  0.92878000  0.80131000  0.98379000  1.0
  C  C110  1  0.92972000  0.75173000  0.99076000  1.0
  C  C111  1  0.93843000  0.73314500  0.95152500  1.0
  C  C112  1  0.94024000  0.76421500  0.90496500  1.0
  C  C113  1  0.91847000  0.82131500  0.02579500  1.0
  C  C114  1  0.93208000  0.83213500  0.93720500  1.0
  C  C115  1  0.82770000  0.51591000  0.25556000  1.0
  C  C116  1  0.67972000  0.53713000  0.20003000  1.0
  C  C117  1  0.69345000  0.49318500  0.18983500  1.0
  C  C118  1  0.77559000  0.46074500  0.21139500  1.0
  C  C119  1  0.84438000  0.47284500  0.24331500  1.0
  C  C120  1  0.58966000  0.57073000  0.17787000  1.0
  C  C121  1  0.74540000  0.54784500  0.23369500  1.0
  C  C122  1  0.97017000  0.91937000  0.55197000  1.0
  C  C123  1  0.97117000  0.92215000  0.59926000  1.0
  C  C124  1  0.97743000  0.88049000  0.63739000  1.0
  C  C125  1  0.98571000  0.83614500  0.62812500  1.0
  C  C126  1  0.95694000  0.96357000  0.51123000  1.0
  C  C127  1  0.82793000  0.14333500  0.32982500  1.0
  C  C128  1  0.84748000  0.11827500  0.25734500  1.0
  C  C129  1  0.83703000  0.16612000  0.22992000  1.0
  C  C130  1  0.82269000  0.20259000  0.25227000  1.0
  C  C131  1  0.81718000  0.19106500  0.30206500  1.0
  C  C132  1  0.84538000  0.10715500  0.30739500  1.0
  C  C133  1  0.94458000  0.56002500  0.52019500  1.0
  C  C134  1  0.45366000  0.69882500  0.40868500  1.0
  Cd  Cd135  1  0.08731000  0.68453500  0.60332500  1.0
  Cd  Cd136  1  0.87041000  0.70316500  0.56877500  1.0
  Cd  Cd137  1  0.94407000  0.12033500  0.46960500  1.0
  Cd  Cd138  1  0.72311000  0.15379000  0.47019000  1.0
  Cd  Cd139  1  0.83098000  0.59418500  0.96231500  1.0
  Cd  Cd140  1  0.05461000  0.59692500  0.93177500  1.0
  Cd  Cd141  1  0.78348000  0.49630000  0.38898000  1.0
  Cd  Cd142  1  0.01474000  0.49832500  0.37945500  1.0
  Cd  Cd143  1  0.04192000  0.92214000  0.77050000  1.0
  Cd  Cd144  1  0.82293000  0.89732500  0.76167500  1.0
  Cd  Cd145  1  0.70073000  0.34087500  0.15809500  1.0
  Cd  Cd146  1  0.92987000  0.33955500  0.17137500  1.0
  H  H147  1  0.95849000  0.53120500  0.64128500  1.0
  H  H148  1  0.95189000  0.44333500  0.67403500  1.0
  H  H149  1  0.63162000  0.70599500  0.45702500  1.0
  H  H150  1  0.29007000  0.69023000  0.47282000  1.0
  H  H151  1  0.47806000  0.69165500  0.59490500  1.0
  H  H152  1  0.97475000  0.87214000  0.50663000  1.0
  H  H153  1  0.16258000  0.37261000  0.91889000  1.0
  H  H154  1  0.20560000  0.34376000  0.97900000  1.0
  H  H155  1  0.10470000  0.31685500  0.95174500  1.0
  H  H156  1  0.87890000  0.96267000  0.49374000  1.0
  H  H157  1  0.82862000  0.08885000  0.19802000  1.0
  H  H158  1  0.95631000  0.07513000  0.22800000  1.0
  H  H159  1  0.83489000  0.04527500  0.25530500  1.0
  H  H160  1  0.99002000  0.63379000  0.76697000  1.0
  H  H161  1  0.87094000  0.44369000  0.55224000  1.0
  H  H162  1  0.81216000  0.44310000  0.65767000  1.0
  H  H163  1  0.87846000  0.07804000  0.75023000  1.0
  H  H164  1  0.80468000  0.17609500  0.61417500  1.0
  H  H165  1  0.87140000  0.02795500  0.62514500  1.0
  H  H166  1  0.74063000  0.17290000  0.71919000  1.0
  H  H167  1  0.87847000  0.16500000  0.73933000  1.0
  H  H168  1  0.84826000  0.20594500  0.68237500  1.0
  H  H169  1  0.99674000  0.31389000  0.02847000  1.0
  H  H170  1  0.09141000  0.44671000  0.93013000  1.0
  H  H171  1  0.83414000  0.44462500  0.03251500  1.0
  H  H172  1  0.53934000  0.01826500  0.50257500  1.0
  H  H173  1  0.19887000  0.00427000  0.49682000  1.0
  H  H174  1  0.33274000  0.14460000  0.47072000  1.0
  H  H175  1  0.32009000  0.93686500  0.49766500  1.0
  H  H176  1  0.46368000  0.94290500  0.49933500  1.0
  H  H177  1  0.38167000  0.93865000  0.55259000  1.0
  H  H178  1  0.24439000  0.52658000  0.06081000  1.0
  H  H179  1  0.58699000  0.52645000  0.07406000  1.0
  H  H180  1  0.44195000  0.60220000  0.94062000  1.0
  H  H181  1  0.47132000  0.46356000  0.12931000  1.0
  H  H182  1  0.40927000  0.51281000  0.14748000  1.0
  H  H183  1  0.32730000  0.47177000  0.12813000  1.0
  H  H184  1  0.23333000  0.62146500  0.31447500  1.0
  H  H185  1  0.57350000  0.61833500  0.33598500  1.0
  H  H186  1  0.39360000  0.48924000  0.38866000  1.0
  H  H187  1  0.48244000  0.69349000  0.30346000  1.0
  H  H188  1  0.40597000  0.68052000  0.25695000  1.0
  H  H189  1  0.33740000  0.69685000  0.30584000  1.0
  H  H190  1  0.61594000  0.97022000  0.84830000  1.0
  H  H191  1  0.27438000  0.99028000  0.84059000  1.0
  H  H192  1  0.43486000  0.90012500  0.76379500  1.0
  H  H193  1  0.38355000  0.04242500  0.87213500  1.0
  H  H194  1  0.44067000  0.99259000  0.91728000  1.0
  H  H195  1  0.52748000  0.03384500  0.87542500  1.0
  H  H196  1  0.48492000  0.39643000  0.04391000  1.0
  H  H197  1  0.14443000  0.42097500  0.05439500  1.0
  H  H198  1  0.31309000  0.33179000  0.17561000  1.0
  H  H199  1  0.24572000  0.46848500  0.98679500  1.0
  H  H200  1  0.39072000  0.46453500  0.98571500  1.0
  H  H201  1  0.31341000  0.42027000  0.96908000  1.0
  H  H202  1  0.78249000  0.74812000  0.68804000  1.0
  H  H203  1  0.76006000  0.70346000  0.84034000  1.0
  H  H204  1  0.59746000  0.75167500  0.76303500  1.0
  H  H205  1  0.68227000  0.78137500  0.79486500  1.0
  H  H206  1  0.68664000  0.79837500  0.73075500  1.0
  H  H207  1  0.99808000  0.24008500  0.35700500  1.0
  H  H208  1  0.03504000  0.39106000  0.32445000  1.0
  H  H209  1  0.82804000  0.31916500  0.44233500  1.0
  H  H210  1  0.18198000  0.31029000  0.30837000  1.0
  H  H211  1  0.08099000  0.28387000  0.28076000  1.0
  H  H212  1  0.09099000  0.34777500  0.26556500  1.0
  H  H213  1  0.92906000  0.87042500  0.93181500  1.0
  H  H214  1  0.92623000  0.72775000  0.02659000  1.0
  H  H215  1  0.94496000  0.74982500  0.87448500  1.0
  H  H216  1  0.83168000  0.82671000  0.03377000  1.0
  H  H217  1  0.95594000  0.79657000  0.05773000  1.0
  H  H218  1  0.95971000  0.85604500  0.01814500  1.0
  H  H219  1  0.73080000  0.58062000  0.24364000  1.0
  H  H220  1  0.64053000  0.48457500  0.16466500  1.0
  H  H221  1  0.90612000  0.44742500  0.26080500  1.0
  H  H222  1  0.57800000  0.56994000  0.14051000  1.0
  H  H223  1  0.51386000  0.56002500  0.19887500  1.0
  H  H224  1  0.60784000  0.60799000  0.17713000  1.0
  H  H225  1  0.96271000  0.95653000  0.60648000  1.0
  H  H226  1  0.98830000  0.80394000  0.65772000  1.0
  H  H227  1  0.95733000  0.99620000  0.52366000  1.0
  H  H228  1  0.02391000  0.96541500  0.48473500  1.0
  H  H229  1  0.85552000  0.07045000  0.32874000  1.0
  H  H230  1  0.84264000  0.17499500  0.19131500  1.0
  H  H231  1  0.80693000  0.21944500  0.31923500  1.0
  H  H232  1  0.95539000  0.58996500  0.48866500  1.0
  H  H233  1  0.91292000  0.40697000  0.63699000  1.0
  H  H234  1  0.38435000  0.67796000  0.40279000  1.0
  H  H235  1  0.44302000  0.73653000  0.38717000  1.0
  H  H236  1  0.52828000  0.68348000  0.39631000  1.0
  O  O237  1  0.25453000  0.67616500  0.61138500  1.0
  O  O238  1  0.17354000  0.69727000  0.54141000  1.0
  O  O239  1  0.86486000  0.69446500  0.64125500  1.0
  O  O240  1  0.03732000  0.67602000  0.67108000  1.0
  O  O241  1  0.03522000  0.61848000  0.60601000  1.0
  O  O242  1  0.93186000  0.65049000  0.54180000  1.0
  O  O243  1  0.06074000  0.75464500  0.59831500  1.0
  O  O244  1  0.91530000  0.77257000  0.54955000  1.0
  O  O245  1  0.75556000  0.72609500  0.51729500  1.0
  O  O246  1  0.71142000  0.68113500  0.58874500  1.0
  O  O247  1  0.10430000  0.13723000  0.48013000  1.0
  O  O248  1  0.06041000  0.06970000  0.46726000  1.0
  O  O249  1  0.76760000  0.22239000  0.44589000  1.0
  O  O250  1  0.94307000  0.19334500  0.44219500  1.0
  O  O251  1  0.89041000  0.08968000  0.53824000  1.0
  O  O252  1  0.76685000  0.14859500  0.53806500  1.0
  O  O253  1  0.89784000  0.10600500  0.40827500  1.0
  O  O254  1  0.75271000  0.15717000  0.40066000  1.0
  O  O255  1  0.55458000  0.15985500  0.47329500  1.0
  O  O256  1  0.64597000  0.09149000  0.48176000  1.0
  O  O257  1  0.67252000  0.58555500  0.94307500  1.0
  O  O258  1  0.71529000  0.58514500  0.01574500  1.0
  O  O259  1  0.01393000  0.62271000  0.86333000  1.0
  O  O260  1  0.83545000  0.62421500  0.88949500  1.0
  O  O261  1  0.88806000  0.52602000  0.98858000  1.0
  O  O262  1  0.01870000  0.52938000  0.93214000  1.0
  O  O263  1  0.86817000  0.65398000  0.98103000  1.0
  O  O264  1  0.02159000  0.66509000  0.93432000  1.0
  O  O265  1  0.22199000  0.59546000  0.92399000  1.0
  O  O266  1  0.13407000  0.57763000  0.99404000  1.0
  O  O267  1  0.62417000  0.48295000  0.37775000  1.0
  O  O268  1  0.67765000  0.54911000  0.39245000  1.0
  O  O269  1  0.00035000  0.42715500  0.40121500  1.0
  O  O270  1  0.81785000  0.42824000  0.38498000  1.0
  O  O271  1  0.81691000  0.48917000  0.45789000  1.0
  O  O272  1  0.97743000  0.52549000  0.43551000  1.0
  O  O273  1  0.82774000  0.54258500  0.32561500  1.0
  O  O274  1  0.96742000  0.49781000  0.31355000  1.0
  O  O275  1  0.17832000  0.48618000  0.38796000  1.0
  O  O276  1  0.10525000  0.55427500  0.34436500  1.0
  O  O277  1  0.20402000  0.89785000  0.77252000  1.0
  O  O278  1  0.15212000  0.96576500  0.78554500  1.0
  O  O279  1  0.86483000  0.87228000  0.70667000  1.0
  O  O280  1  0.03480000  0.90393500  0.70566500  1.0
  O  O281  1  0.98016000  0.98962000  0.74897000  1.0
  O  O282  1  0.83753000  0.96460500  0.71570500  1.0
  O  O283  1  0.00000000  0.88335000  0.83842000  1.0
  O  O284  1  0.87054000  0.84043500  0.81709500  1.0
  O  O285  1  0.65694000  0.88882500  0.75955500  1.0
  O  O286  1  0.73519000  0.92926000  0.80325000  1.0
  O  O287  1  0.54044000  0.34833000  0.17567000  1.0
  O  O288  1  0.59576000  0.33407500  0.10823500  1.0
  O  O289  1  0.88427000  0.39422000  0.20031000  1.0
  O  O290  1  0.70419000  0.39742000  0.18482000  1.0
  O  O291  1  0.76723000  0.37356500  0.09362500  1.0
  O  O292  1  0.90098000  0.31952000  0.11115000  1.0
  O  O293  1  0.73669000  0.27097000  0.19808000  1.0
  O  O294  1  0.90955000  0.27761000  0.22236000  1.0
  O  O295  1  0.02394000  0.38792000  0.12562000  1.0
  O  O296  1  0.09430000  0.32622000  0.17957000  1.0
