# generated using pymatgen
data_Fe2H81C171(S2N7)6
_symmetry_space_group_name_H-M   'P 1'
_cell_length_a   24.72370000
_cell_length_b   32.86457359
_cell_length_c   34.01570000
_cell_angle_alpha   117.93541264
_cell_angle_beta   90.00000000
_cell_angle_gamma   90.00000000
_symmetry_Int_Tables_number   1
_chemical_formula_structural   Fe2H81C171(S2N7)6
_chemical_formula_sum   'Fe2 H81 C171 S12 N42'
_cell_volume   24418.31873302
_cell_formula_units_Z   1
loop_
 _symmetry_equiv_pos_site_id
 _symmetry_equiv_pos_as_xyz
  1  'x, y, z'
loop_
 _atom_site_type_symbol
 _atom_site_label
 _atom_site_symmetry_multiplicity
 _atom_site_fract_x
 _atom_site_fract_y
 _atom_site_fract_z
 _atom_site_occupancy
  Fe  Fe0  1  0.02468000  0.67889000  0.31479000  1.0
  Fe  Fe1  1  0.02401000  0.34870000  0.66356000  1.0
  H  H2  1  0.12563000  0.62814000  0.25162000  1.0
  H  H3  1  0.05581000  0.74538000  0.21244000  1.0
  H  H4  1  0.13015000  0.51575000  0.30467000  1.0
  H  H5  1  0.12371000  0.66395000  0.36714000  1.0
  H  H6  1  0.05815000  0.51128000  0.25532000  1.0
  H  H7  1  0.12843000  0.69525000  0.16916000  1.0
  H  H8  1  0.92301000  0.51972000  0.16893000  1.0
  H  H9  1  0.92710000  0.66754000  0.24819000  1.0
  H  H10  1  0.99495000  0.51267000  0.21266000  1.0
  H  H11  1  0.92906000  0.83885000  0.31136000  1.0
  H  H12  1  0.92589000  0.74489000  0.36674000  1.0
  H  H13  1  0.99953000  0.79379000  0.26050000  1.0
  H  H14  1  0.12214000  0.82543000  0.47426000  1.0
  H  H15  1  0.12104000  0.75008000  0.33090000  1.0
  H  H16  1  0.05174000  0.77673000  0.47724000  1.0
  H  H17  1  0.91661000  0.67793000  0.46659000  1.0
  H  H18  1  0.92310000  0.62347000  0.32437000  1.0
  H  H19  1  0.99033000  0.72940000  0.47494000  1.0
  H  H20  1  0.11971000  0.40408000  0.73023000  1.0
  H  H21  1  0.05080000  0.28768000  0.77087000  1.0
  H  H22  1  0.12094000  0.50939000  0.66239000  1.0
  H  H23  1  0.12336000  0.36211000  0.61050000  1.0
  H  H24  1  0.05009000  0.51540000  0.71355000  1.0
  H  H25  1  0.12015000  0.34033000  0.81584000  1.0
  H  H26  1  0.92468000  0.50922000  0.80894000  1.0
  H  H27  1  0.92491000  0.36166000  0.72908000  1.0
  H  H28  1  0.99541000  0.51538000  0.76325000  1.0
  H  H29  1  0.92089000  0.19545000  0.67529000  1.0
  H  H30  1  0.92472000  0.28282000  0.61251000  1.0
  H  H31  1  0.99264000  0.24000000  0.72470000  1.0
  H  H32  1  0.13118000  0.19859000  0.51269000  1.0
  H  H33  1  0.12515000  0.28382000  0.65478000  1.0
  H  H34  1  0.05741000  0.24157000  0.50381000  1.0
  H  H35  1  0.92587000  0.33814000  0.50340000  1.0
  H  H36  1  0.92760000  0.40344000  0.64679000  1.0
  H  H37  1  0.99615000  0.28655000  0.50090000  1.0
  H  H38  1  0.41599000  0.50873000  0.55876000  1.0
  H  H39  1  0.41855000  0.58783000  0.48760000  1.0
  H  H40  1  0.33388000  0.46961000  0.56177000  1.0
  H  H41  1  0.18895000  0.48207000  0.49821000  1.0
  H  H42  1  0.19031000  0.52510000  0.45667000  1.0
  H  H43  1  0.33558000  0.59438000  0.45053000  1.0
  H  H44  1  0.32711000  0.90308000  0.39877000  1.0
  H  H45  1  0.18929000  0.97594000  0.47780000  1.0
  H  H46  1  0.41175000  0.94359000  0.40714000  1.0
  H  H47  1  0.42564000  0.08758000  0.50106000  1.0
  H  H48  1  0.34493000  0.13027000  0.54226000  1.0
  H  H49  1  0.19483000  0.05754000  0.52723000  1.0
  H  H50  1  0.18504000  0.49307000  0.95291000  1.0
  H  H51  1  0.32521000  0.49042000  0.87665000  1.0
  H  H52  1  0.18946000  0.53074000  0.03342000  1.0
  H  H53  1  0.34038000  0.58617000  0.10067000  1.0
  H  H54  1  0.42205000  0.58066000  0.05676000  1.0
  H  H55  1  0.40988000  0.52289000  0.91435000  1.0
  H  H56  1  0.71706000  0.89944000  0.41595000  1.0
  H  H57  1  0.86243000  0.97357000  0.47822000  1.0
  H  H58  1  0.63442000  0.94137000  0.42038000  1.0
  H  H59  1  0.63091000  0.08936000  0.49367000  1.0
  H  H60  1  0.71393000  0.13189000  0.53058000  1.0
  H  H61  1  0.86048000  0.05697000  0.52149000  1.0
  H  H62  1  0.85966000  0.48647000  0.94989000  1.0
  H  H63  1  0.71285000  0.46989000  0.87596000  1.0
  H  H64  1  0.85943000  0.53110000  0.02996000  1.0
  H  H65  1  0.71373000  0.59823000  0.09991000  1.0
  H  H66  1  0.62962000  0.58990000  0.05729000  1.0
  H  H67  1  0.63066000  0.50832000  0.91475000  1.0
  H  H68  1  0.63789000  0.52442000  0.57259000  1.0
  H  H69  1  0.62373000  0.57797000  0.47920000  1.0
  H  H70  1  0.72224000  0.49108000  0.58002000  1.0
  H  H71  1  0.85926000  0.48597000  0.49971000  1.0
  H  H72  1  0.85371000  0.52026000  0.45072000  1.0
  H  H73  1  0.70408000  0.58013000  0.43741000  1.0
  H  H74  1  0.52452000  0.54254000  0.47690000  1.0
  H  H75  1  0.47158000  0.58086000  0.60864000  1.0
  H  H76  1  0.57232000  0.58284000  0.61036000  1.0
  H  H77  1  0.52511000  0.05402000  0.50359000  1.0
  H  H78  1  0.47749000  0.96597000  0.36980000  1.0
  H  H79  1  0.57821000  0.96570000  0.37159000  1.0
  H  H80  1  0.52243000  0.54296000  0.02707000  1.0
  H  H81  1  0.47488000  0.58267000  0.92959000  1.0
  H  H82  1  0.57560000  0.58107000  0.92990000  1.0
  C  C83  1  0.00287000  0.74277000  0.28437000  1.0
  C  C84  1  0.94313000  0.80812000  0.31234000  1.0
  C  C85  1  0.04901000  0.58570000  0.28321000  1.0
  C  C86  1  0.94107000  0.75474000  0.34265000  1.0
  C  C87  1  0.92207000  0.79532000  0.34317000  1.0
  C  C88  1  0.98320000  0.78195000  0.28278000  1.0
  C  C89  1  0.10984000  0.63064000  0.34221000  1.0
  C  C90  1  0.13238000  0.59042000  0.34029000  1.0
  C  C91  1  0.07206000  0.54500000  0.27924000  1.0
  C  C92  1  0.11342000  0.54760000  0.30784000  1.0
  C  C93  1  0.99927000  0.70585000  0.40371000  1.0
  C  C94  1  0.93378000  0.67728000  0.43699000  1.0
  C  C95  1  0.04572000  0.73491000  0.40524000  1.0
  C  C96  1  0.93739000  0.64726000  0.35721000  1.0
  C  C97  1  0.91433000  0.64665000  0.39469000  1.0
  C  C98  1  0.97598000  0.70696000  0.44175000  1.0
  C  C99  1  0.10661000  0.75522000  0.36286000  1.0
  C  C100  1  0.12680000  0.79209000  0.40213000  1.0
  C  C101  1  0.06677000  0.76985000  0.44494000  1.0
  C  C102  1  0.10708000  0.79818000  0.44316000  1.0
  C  C103  1  0.00277000  0.58657000  0.25597000  1.0
  C  C104  1  0.04932000  0.71554000  0.25755000  1.0
  C  C105  1  0.94139000  0.63369000  0.24094000  1.0
  C  C106  1  0.91960000  0.59440000  0.20465000  1.0
  C  C107  1  0.98050000  0.54681000  0.22128000  1.0
  C  C108  1  0.13274000  0.65784000  0.20722000  1.0
  C  C109  1  0.11117000  0.65459000  0.24391000  1.0
  C  C110  1  0.93920000  0.55095000  0.19591000  1.0
  C  C111  1  0.07117000  0.72061000  0.22210000  1.0
  C  C112  1  0.11258000  0.69160000  0.19704000  1.0
  C  C113  1  0.99989000  0.28749000  0.69683000  1.0
  C  C114  1  0.93685000  0.22448000  0.67216000  1.0
  C  C115  1  0.04641000  0.44157000  0.69154000  1.0
  C  C116  1  0.93890000  0.27408000  0.63763000  1.0
  C  C117  1  0.91715000  0.23557000  0.63972000  1.0
  C  C118  1  0.97790000  0.25031000  0.70083000  1.0
  C  C119  1  0.10820000  0.39562000  0.63389000  1.0
  C  C120  1  0.12758000  0.43507000  0.63234000  1.0
  C  C121  1  0.06630000  0.48168000  0.69198000  1.0
  C  C122  1  0.10659000  0.47817000  0.66224000  1.0
  C  C123  1  0.00246000  0.31547000  0.57298000  1.0
  C  C124  1  0.94104000  0.34140000  0.53460000  1.0
  C  C125  1  0.04877000  0.28795000  0.57488000  1.0
  C  C126  1  0.94187000  0.37726000  0.61493000  1.0
  C  C127  1  0.92151000  0.37550000  0.57550000  1.0
  C  C128  1  0.98128000  0.31138000  0.53311000  1.0
  C  C129  1  0.11075000  0.27521000  0.62182000  1.0
  C  C130  1  0.13371000  0.23788000  0.58455000  1.0
  C  C131  1  0.07186000  0.25175000  0.53707000  1.0
  C  C132  1  0.11409000  0.22691000  0.54215000  1.0
  C  C133  1  0.00038000  0.44146000  0.71919000  1.0
  C  C134  1  0.04556000  0.31565000  0.72419000  1.0
  C  C135  1  0.93944000  0.39525000  0.73568000  1.0
  C  C136  1  0.91939000  0.43478000  0.77255000  1.0
  C  C137  1  0.97979000  0.48156000  0.75462000  1.0
  C  C138  1  0.12525000  0.37683000  0.77680000  1.0
  C  C139  1  0.10551000  0.37796000  0.73850000  1.0
  C  C140  1  0.93957000  0.47797000  0.78117000  1.0
  C  C141  1  0.06595000  0.31233000  0.76098000  1.0
  C  C142  1  0.10554000  0.34297000  0.78711000  1.0
  C  C143  1  0.34137000  0.50944000  0.52648000  1.0
  C  C144  1  0.39537000  0.52142000  0.53850000  1.0
  C  C145  1  0.42312000  0.54973000  0.52470000  1.0
  C  C146  1  0.39689000  0.56586000  0.49808000  1.0
  C  C147  1  0.34220000  0.55506000  0.48652000  1.0
  C  C148  1  0.31443000  0.52662000  0.50075000  1.0
  C  C149  1  0.31340000  0.48184000  0.54110000  1.0
  C  C150  1  0.25824000  0.47247000  0.53161000  1.0
  C  C151  1  0.23162000  0.48925000  0.50565000  1.0
  C  C152  1  0.25943000  0.51602000  0.48998000  1.0
  C  C153  1  0.23270000  0.53325000  0.46462000  1.0
  C  C154  1  0.25983000  0.56155000  0.45028000  1.0
  C  C155  1  0.31450000  0.57264000  0.46160000  1.0
  C  C156  1  0.33950000  0.97528000  0.44380000  1.0
  C  C157  1  0.30868000  0.93470000  0.42354000  1.0
  C  C158  1  0.25472000  0.93440000  0.43610000  1.0
  C  C159  1  0.23125000  0.97554000  0.46837000  1.0
  C  C160  1  0.26132000  0.01649000  0.48827000  1.0
  C  C161  1  0.31593000  0.01634000  0.47648000  1.0
  C  C162  1  0.39362000  0.97534000  0.43194000  1.0
  C  C163  1  0.42491000  0.01559000  0.45256000  1.0
  C  C164  1  0.40156000  0.05641000  0.48541000  1.0
  C  C165  1  0.34680000  0.05728000  0.49705000  1.0
  C  C166  1  0.32186000  0.09852000  0.52780000  1.0
  C  C167  1  0.26651000  0.09929000  0.53793000  1.0
  C  C168  1  0.23717000  0.05775000  0.51908000  1.0
  C  C169  1  0.25718000  0.52336000  0.99094000  1.0
  C  C170  1  0.22740000  0.50073000  0.95134000  1.0
  C  C171  1  0.25174000  0.48853000  0.90994000  1.0
  C  C172  1  0.30620000  0.49972000  0.90849000  1.0
  C  C173  1  0.33672000  0.52151000  0.94779000  1.0
  C  C174  1  0.31238000  0.53303000  0.98920000  1.0
  C  C175  1  0.23227000  0.53729000  0.03226000  1.0
  C  C176  1  0.26168000  0.56075000  0.07204000  1.0
  C  C177  1  0.31749000  0.56805000  0.07010000  1.0
  C  C178  1  0.34304000  0.55470000  0.02887000  1.0
  C  C179  1  0.39821000  0.56396000  0.02656000  1.0
  C  C180  1  0.42218000  0.55322000  0.98536000  1.0
  C  C181  1  0.39124000  0.53197000  0.94626000  1.0
  C  C182  1  0.70919000  0.97342000  0.45226000  1.0
  C  C183  1  0.73751000  0.93171000  0.43671000  1.0
  C  C184  1  0.79291000  0.93162000  0.44541000  1.0
  C  C185  1  0.81954000  0.97355000  0.47147000  1.0
  C  C186  1  0.79134000  0.01546000  0.48826000  1.0
  C  C187  1  0.73602000  0.01554000  0.47824000  1.0
  C  C188  1  0.65491000  0.97370000  0.44089000  1.0
  C  C189  1  0.62675000  0.01534000  0.45554000  1.0
  C  C190  1  0.65286000  0.05726000  0.48252000  1.0
  C  C191  1  0.70781000  0.05771000  0.49348000  1.0
  C  C192  1  0.73535000  0.09946000  0.51874000  1.0
  C  C193  1  0.79028000  0.09944000  0.52945000  1.0
  C  C194  1  0.81789000  0.05730000  0.51405000  1.0
  C  C195  1  0.78925000  0.51995000  0.98915000  1.0
  C  C196  1  0.81674000  0.49288000  0.94914000  1.0
  C  C197  1  0.78947000  0.47475000  0.90817000  1.0
  C  C198  1  0.73393000  0.48314000  0.90754000  1.0
  C  C199  1  0.70620000  0.51092000  0.94726000  1.0
  C  C200  1  0.73382000  0.52939000  0.98833000  1.0
  C  C201  1  0.81671000  0.53844000  0.02982000  1.0
  C  C202  1  0.78988000  0.56663000  0.07000000  1.0
  C  C203  1  0.73467000  0.57659000  0.06907000  1.0
  C  C204  1  0.70627000  0.55793000  0.02843000  1.0
  C  C205  1  0.65110000  0.56772000  0.02691000  1.0
  C  C206  1  0.62419000  0.55043000  0.98582000  1.0
  C  C207  1  0.65174000  0.52185000  0.94635000  1.0
  C  C208  1  0.70975000  0.51997000  0.53532000  1.0
  C  C209  1  0.65589000  0.53209000  0.54773000  1.0
  C  C210  1  0.62464000  0.55277000  0.52750000  1.0
  C  C211  1  0.64779000  0.56166000  0.49455000  1.0
  C  C212  1  0.70231000  0.55069000  0.48237000  1.0
  C  C213  1  0.73313000  0.52922000  0.50249000  1.0
  C  C214  1  0.74051000  0.49857000  0.55514000  1.0
  C  C215  1  0.79418000  0.48548000  0.54197000  1.0
  C  C216  1  0.81749000  0.49518000  0.50956000  1.0
  C  C217  1  0.78750000  0.51735000  0.49013000  1.0
  C  C218  1  0.81151000  0.52873000  0.45928000  1.0
  C  C219  1  0.78224000  0.55248000  0.44092000  1.0
  C  C220  1  0.72707000  0.56201000  0.45151000  1.0
  C  C221  1  0.17257000  0.59183000  0.37301000  1.0
  C  C222  1  0.23078000  0.57833000  0.42269000  1.0
  C  C223  1  0.17557000  0.20796000  0.58805000  1.0
  C  C224  1  0.23765000  0.14358000  0.56390000  1.0
  C  C225  1  0.17290000  0.62498000  0.17704000  1.0
  C  C226  1  0.23257000  0.58164000  0.11508000  1.0
  C  C227  1  0.16715000  0.43254000  0.59897000  1.0
  C  C228  1  0.22716000  0.44992000  0.55303000  1.0
  C  C229  1  0.16564000  0.82596000  0.40159000  1.0
  C  C230  1  0.22351000  0.89095000  0.41710000  1.0
  C  C231  1  0.16378000  0.41151000  0.80750000  1.0
  C  C232  1  0.22089000  0.46258000  0.86825000  1.0
  C  C233  1  0.88287000  0.82599000  0.37645000  1.0
  C  C234  1  0.82394000  0.88834000  0.42334000  1.0
  C  C235  1  0.88003000  0.43245000  0.80389000  1.0
  C  C236  1  0.82008000  0.45150000  0.86606000  1.0
  C  C237  1  0.87278000  0.61324000  0.39144000  1.0
  C  C238  1  0.81107000  0.57173000  0.41511000  1.0
  C  C239  1  0.87699000  0.20496000  0.60712000  1.0
  C  C240  1  0.81911000  0.14304000  0.55729000  1.0
  C  C241  1  0.87940000  0.59710000  0.17378000  1.0
  C  C242  1  0.81982000  0.58381000  0.11254000  1.0
  C  C243  1  0.88271000  0.40981000  0.57589000  1.0
  C  C244  1  0.82525000  0.46013000  0.56066000  1.0
  C  C245  1  0.56760000  0.56416000  0.54096000  1.0
  C  C246  1  0.52387000  0.55629000  0.51270000  1.0
  C  C247  1  0.47920000  0.56298000  0.53969000  1.0
  C  C248  1  0.57053000  0.01401000  0.44073000  1.0
  C  C249  1  0.52579000  0.03327000  0.46777000  1.0
  C  C250  1  0.48209000  0.01394000  0.43937000  1.0
  C  C251  1  0.56791000  0.56332000  0.98273000  1.0
  C  C252  1  0.52313000  0.55650000  0.00356000  1.0
  C  C253  1  0.47943000  0.56415000  0.98217000  1.0
  S  S254  1  0.17885000  0.55066000  0.38886000  1.0
  S  S255  1  0.17056000  0.15027000  0.56101000  1.0
  S  S256  1  0.16861000  0.60106000  0.12132000  1.0
  S  S257  1  0.16485000  0.46639000  0.57416000  1.0
  S  S258  1  0.17140000  0.88045000  0.44265000  1.0
  S  S259  1  0.16921000  0.42690000  0.86206000  1.0
  S  S260  1  0.88458000  0.88386000  0.39942000  1.0
  S  S261  1  0.88299000  0.46645000  0.85930000  1.0
  S  S262  1  0.87795000  0.58226000  0.41894000  1.0
  S  S263  1  0.87136000  0.14827000  0.59094000  1.0
  S  S264  1  0.87465000  0.55798000  0.11982000  1.0
  S  S265  1  0.87636000  0.42386000  0.53444000  1.0
  N  N266  1  0.06867000  0.62722000  0.31394000  1.0
  N  N267  1  0.06669000  0.72773000  0.36543000  1.0
  N  N268  1  0.98237000  0.62873000  0.26547000  1.0
  N  N269  1  0.98120000  0.72984000  0.31366000  1.0
  N  N270  1  0.97941000  0.67657000  0.36267000  1.0
  N  N271  1  0.06980000  0.68318000  0.26781000  1.0
  N  N272  1  0.06784000  0.39983000  0.66306000  1.0
  N  N273  1  0.06875000  0.29903000  0.61603000  1.0
  N  N274  1  0.97964000  0.39957000  0.71024000  1.0
  N  N275  1  0.97985000  0.29864000  0.66582000  1.0
  N  N276  1  0.98176000  0.34740000  0.61264000  1.0
  N  N277  1  0.06618000  0.34762000  0.71343000  1.0
  N  N278  1  0.24205000  0.61790000  0.42114000  1.0
  N  N279  1  0.20963000  0.62552000  0.39383000  1.0
  N  N280  1  0.26203000  0.18531000  0.58508000  1.0
  N  N281  1  0.22783000  0.22079000  0.59819000  1.0
  N  N282  1  0.25558000  0.59416000  0.15530000  1.0
  N  N283  1  0.22252000  0.61805000  0.18958000  1.0
  N  N284  1  0.24813000  0.41962000  0.56549000  1.0
  N  N285  1  0.21476000  0.40977000  0.59073000  1.0
  N  N286  1  0.23518000  0.85308000  0.37826000  1.0
  N  N287  1  0.20295000  0.81721000  0.36952000  1.0
  N  N288  1  0.23269000  0.46189000  0.82904000  1.0
  N  N289  1  0.20086000  0.43390000  0.79550000  1.0
  N  N290  1  0.80391000  0.84618000  0.41313000  1.0
  N  N291  1  0.83675000  0.81164000  0.38744000  1.0
  N  N292  1  0.79845000  0.42150000  0.82632000  1.0
  N  N293  1  0.83171000  0.41081000  0.79192000  1.0
  N  N294  1  0.78663000  0.59225000  0.39333000  1.0
  N  N295  1  0.82065000  0.61531000  0.38044000  1.0
  N  N296  1  0.80728000  0.18418000  0.55920000  1.0
  N  N297  1  0.83950000  0.21839000  0.58657000  1.0
  N  N298  1  0.80646000  0.62140000  0.15114000  1.0
  N  N299  1  0.83956000  0.62887000  0.18498000  1.0
  N  N300  1  0.81432000  0.46067000  0.59994000  1.0
  N  N301  1  0.84636000  0.43307000  0.60852000  1.0
  N  N302  1  0.49590000  0.57519000  0.58142000  1.0
  N  N303  1  0.54920000  0.57606000  0.58224000  1.0
  N  N304  1  0.50056000  0.98617000  0.39804000  1.0
  N  N305  1  0.55386000  0.98611000  0.39890000  1.0
  N  N306  1  0.49794000  0.57599000  0.95167000  1.0
  N  N307  1  0.55124000  0.57535000  0.95193000  1.0
