# generated using pymatgen
data_NaLaH24C39(SO3)4
_symmetry_space_group_name_H-M   'P 1'
_cell_length_a   18.10395000
_cell_length_b   19.40035000
_cell_length_c   23.30240000
_cell_angle_alpha   72.80500000
_cell_angle_beta   88.52300000
_cell_angle_gamma   87.02400000
_symmetry_Int_Tables_number   1
_chemical_formula_structural   NaLaH24C39(SO3)4
_chemical_formula_sum   'Na2 La2 H48 C78 S8 O24'
_cell_volume   7807.52149355
_cell_formula_units_Z   2
loop_
 _symmetry_equiv_pos_site_id
 _symmetry_equiv_pos_as_xyz
  1  'x, y, z'
loop_
 _atom_site_type_symbol
 _atom_site_label
 _atom_site_symmetry_multiplicity
 _atom_site_fract_x
 _atom_site_fract_y
 _atom_site_fract_z
 _atom_site_occupancy
  C  C0  1  0.11066000  0.21428000  0.17504000  1.0
  C  C1  1  0.89478000  0.24676000  0.09312000  1.0
  C  C2  1  0.86186000  0.05246000  0.27178000  1.0
  C  C3  1  0.05382000  0.98718000  0.27710000  1.0
  C  C4  1  0.88892000  0.79628000  0.92262000  1.0
  C  C5  1  0.10016000  0.77298000  0.98788000  1.0
  C  C6  1  0.14781500  0.87884000  0.76564000  1.0
  C  C7  1  0.94877500  0.89586000  0.74848000  1.0
  C  C8  1  0.85570000  0.80192000  0.57076000  1.0
  C  C9  1  0.80186000  0.85086000  0.52392000  1.0
  C  C10  1  0.80892000  0.83136000  0.46410000  1.0
  C  C11  1  0.71700000  0.45050000  0.94468000  1.0
  C  C12  1  0.71357000  0.52216000  0.96218000  1.0
  C  C13  1  0.70998000  0.59014000  0.90634000  1.0
  C  C14  1  0.27374000  0.88942000  0.43740000  1.0
  C  C15  1  0.27152000  0.91258000  0.49556000  1.0
  C  C16  1  0.20662000  0.87968000  0.53808000  1.0
  C  C17  1  0.22708000  0.59208000  0.18792000  1.0
  C  C18  1  0.24306000  0.51400000  0.18380000  1.0
  C  C19  1  0.18214000  0.48706000  0.15090000  1.0
  C  C20  1  0.82292000  0.00276000  0.32150000  1.0
  C  C21  1  0.75908000  0.96798000  0.31670000  1.0
  C  C22  1  0.74568000  0.90890000  0.36694000  1.0
  C  C23  1  0.79960000  0.89684000  0.41066000  1.0
  C  C24  1  0.86080000  0.30890000  0.04798500  1.0
  C  C25  1  0.89942000  0.35864000  0.00366000  1.0
  C  C26  1  0.85338000  0.40986000  0.96392000  1.0
  C  C27  1  0.77856000  0.40020000  0.97686000  1.0
  C  C28  1  0.90238000  0.87136000  0.70852000  1.0
  C  C29  1  0.84900000  0.81998000  0.72700000  1.0
  C  C30  1  0.82492000  0.79466000  0.68067500  1.0
  C  C31  1  0.86010000  0.82562000  0.62608000  1.0
  C  C32  1  0.82859500  0.74706000  0.92785500  1.0
  C  C33  1  0.75978000  0.75096000  0.95509000  1.0
  C  C34  1  0.71258000  0.69794000  0.95008000  1.0
  C  C35  1  0.74432000  0.65312000  0.91844000  1.0
  C  C36  1  0.18190000  0.88956000  0.70592000  1.0
  C  C37  1  0.21216000  0.95317000  0.67114000  1.0
  C  C38  1  0.22678000  0.95432000  0.61152500  1.0
  C  C39  1  0.20886000  0.89120000  0.59922000  1.0
  C  C40  1  0.12066000  0.72410000  0.04700000  1.0
  C  C41  1  0.07362000  0.70870000  0.09678000  1.0
  C  C42  1  0.10586000  0.66184000  0.14830000  1.0
  C  C43  1  0.17863000  0.64042000  0.13938500  1.0
  C  C44  1  0.10266000  0.94916000  0.32706000  1.0
  C  C45  1  0.09346000  0.87936000  0.36430000  1.0
  C  C46  1  0.14934000  0.85452000  0.40670000  1.0
  C  C47  1  0.20274000  0.90466000  0.40298000  1.0
  C  C48  1  0.14962000  0.27954000  0.17290000  1.0
  C  C49  1  0.22270000  0.29244000  0.15490000  1.0
  C  C50  1  0.24191500  0.36336000  0.14860000  1.0
  C  C51  1  0.18424000  0.40638000  0.16248000  1.0
  C  C52  1  0.40312000  0.94324000  0.50952000  1.0
  C  C53  1  0.47530000  0.92000000  0.52788000  1.0
  C  C54  1  0.49246000  0.84932000  0.56048000  1.0
  C  C55  1  0.36560000  0.82019000  0.55924000  1.0
  C  C56  1  0.43850000  0.79836000  0.57742000  1.0
  C  C57  1  0.54074000  0.95550000  0.51252000  1.0
  C  C58  1  0.72116000  0.84816000  0.54446000  1.0
  C  C59  1  0.67436000  0.91108000  0.52388000  1.0
  C  C60  1  0.59834000  0.90536000  0.53428000  1.0
  C  C61  1  0.56854000  0.84024000  0.56432000  1.0
  C  C62  1  0.61284000  0.77750000  0.58584000  1.0
  C  C63  1  0.68932000  0.78154000  0.57526000  1.0
  C  C64  1  0.34702000  0.89251000  0.52488000  1.0
  C  C65  1  0.33862000  0.52494000  0.09820000  1.0
  C  C66  1  0.41268000  0.52206000  0.08067500  1.0
  C  C67  1  0.46900000  0.50512000  0.12208000  1.0
  C  C68  1  0.38026000  0.48878000  0.20244000  1.0
  C  C69  1  0.45440000  0.48804000  0.18345000  1.0
  C  C70  1  0.44392000  0.53490000  0.02388000  1.0
  C  C71  1  0.65034000  0.52184000  0.00660000  1.0
  C  C72  1  0.57578000  0.53176000  0.98752000  1.0
  C  C73  1  0.51990000  0.52630000  0.03062000  1.0
  C  C74  1  0.53552000  0.50868000  0.09102000  1.0
  C  C75  1  0.60802000  0.49744000  0.11156000  1.0
  C  C76  1  0.66558000  0.50430000  0.06888000  1.0
  C  C77  1  0.32156000  0.50684000  0.16042000  1.0
  H  H78  1  0.91228000  0.80459000  0.55068000  1.0
  H  H79  1  0.84234000  0.74420000  0.58268500  1.0
  H  H80  1  0.82010000  0.90692000  0.51634000  1.0
  H  H81  1  0.86444000  0.80616000  0.45936500  1.0
  H  H82  1  0.76854000  0.79060000  0.46260000  1.0
  H  H83  1  0.66392000  0.42268000  0.95462000  1.0
  H  H84  1  0.72688000  0.46036000  0.89572000  1.0
  H  H85  1  0.76628000  0.52502000  0.98504000  1.0
  H  H86  1  0.74146000  0.57894000  0.86824000  1.0
  H  H87  1  0.65292000  0.60616000  0.88988000  1.0
  H  H88  1  0.31828000  0.91784000  0.40718000  1.0
  H  H89  1  0.28862000  0.83060000  0.44845000  1.0
  H  H90  1  0.26212000  0.97238000  0.48224000  1.0
  H  H91  1  0.15350000  0.90482000  0.51718000  1.0
  H  H92  1  0.20506000  0.82088000  0.54358000  1.0
  H  H93  1  0.19978000  0.58812000  0.23206000  1.0
  H  H94  1  0.27920000  0.61974000  0.18864000  1.0
  H  H95  1  0.24112000  0.47813000  0.23100000  1.0
  H  H96  1  0.12742000  0.50286000  0.16714000  1.0
  H  H97  1  0.18344000  0.51350000  0.10174000  1.0
  H  H98  1  0.72532000  0.98224000  0.27688000  1.0
  H  H99  1  0.70018000  0.87396000  0.36978000  1.0
  H  H100  1  0.95914500  0.35773500  0.99970000  1.0
  H  H101  1  0.87410000  0.45316000  0.92712000  1.0
  H  H102  1  0.83023000  0.79900000  0.77308000  1.0
  H  H103  1  0.78578000  0.75258000  0.68760000  1.0
  H  H104  1  0.74376000  0.79100000  0.97756000  1.0
  H  H105  1  0.65712000  0.69270000  0.96882000  1.0
  H  H106  1  0.22026000  0.99899000  0.68742000  1.0
  H  H107  1  0.24738000  0.00104000  0.57810000  1.0
  H  H108  1  0.01736000  0.73076000  0.09608000  1.0
  H  H109  1  0.07694000  0.64456000  0.19100000  1.0
  H  H110  1  0.04814000  0.84670000  0.36057500  1.0
  H  H111  1  0.15170000  0.80074000  0.43808000  1.0
  H  H112  1  0.26044000  0.25280000  0.14416000  1.0
  H  H113  1  0.29558000  0.38259000  0.13208000  1.0
  H  H114  1  0.39154000  0.99783000  0.48108000  1.0
  H  H115  1  0.32458000  0.77962000  0.56970000  1.0
  H  H116  1  0.45256000  0.74258000  0.60152000  1.0
  H  H117  1  0.69620000  0.96186000  0.49758000  1.0
  H  H118  1  0.58900000  0.72610000  0.60752000  1.0
  H  H119  1  0.72254000  0.73172000  0.58900000  1.0
  H  H120  1  0.29626000  0.54098000  0.06438000  1.0
  H  H121  1  0.36850000  0.47658000  0.25010000  1.0
  H  H122  1  0.49864000  0.47479000  0.21582000  1.0
  H  H123  1  0.56140000  0.54174000  0.94092000  1.0
  H  H124  1  0.62006000  0.48350500  0.15898000  1.0
  H  H125  1  0.72208000  0.49470000  0.08448000  1.0
  La  La126  1  0.96590000  0.11572000  0.17400000  1.0
  La  La127  1  0.05072000  0.87024000  0.87112000  1.0
  Na  Na128  1  0.99502000  0.07160000  0.04154000  1.0
  Na  Na129  1  0.01260000  0.02344000  0.91782000  1.0
  O  O130  1  0.96580000  0.23532000  0.09942000  1.0
  O  O131  1  0.85832000  0.19408000  0.12792000  1.0
  O  O132  1  0.14432000  0.16262000  0.15702000  1.0
  O  O133  1  0.03966000  0.21121000  0.18836000  1.0
  O  O134  1  0.85124000  0.05694000  0.21584000  1.0
  O  O135  1  0.92246000  0.08194000  0.27894000  1.0
  O  O136  1  0.00248000  0.95181000  0.26054000  1.0
  O  O137  1  0.05790000  0.05688000  0.25050000  1.0
  O  O138  1  0.05406000  0.06384000  0.11702000  1.0
  O  O139  1  0.95200000  0.02430000  0.12432000  1.0
  O  O140  1  0.95612000  0.08687500  0.95884000  1.0
  O  O141  1  0.03911000  0.81226000  0.97926000  1.0
  O  O142  1  0.13844000  0.78168000  0.93838000  1.0
  O  O143  1  0.88188000  0.85044000  0.94564000  1.0
  O  O144  1  0.94850000  0.78838000  0.89115000  1.0
  O  O145  1  0.13642000  0.93056000  0.79008000  1.0
  O  O146  1  0.11342000  0.82156000  0.79476000  1.0
  O  O147  1  0.99442000  0.94776000  0.72618000  1.0
  O  O148  1  0.95375000  0.85712000  0.80500000  1.0
  O  O149  1  0.96596000  0.97276000  0.86358000  1.0
  O  O150  1  0.10248000  0.97128000  0.89352000  1.0
  O  O151  1  0.02072000  0.10415000  0.95396000  1.0
  O  O152  1  0.54730000  0.02108000  0.47604000  1.0
  O  O153  1  0.40804000  0.55204000  0.97292000  1.0
  S  S154  1  0.86314000  0.95962000  0.38736000  1.0
  S  S155  1  0.76936000  0.32854000  0.03820000  1.0
  S  S156  1  0.91988000  0.88514000  0.63492000  1.0
  S  S157  1  0.83090000  0.67808000  0.89794000  1.0
  S  S158  1  0.17274000  0.83530000  0.66223000  1.0
  S  S159  1  0.20298000  0.67962000  0.06696000  1.0
  S  S160  1  0.18018000  0.98032000  0.34716000  1.0
  S  S161  1  0.10918000  0.35618000  0.18091500  1.0
