# generated using pymatgen
data_Ni2H4C10N4O9
_symmetry_space_group_name_H-M   'P 1'
_cell_length_a   21.53017542
_cell_length_b   21.52985000
_cell_length_c   55.91490000
_cell_angle_alpha   90.00000000
_cell_angle_beta   90.00000000
_cell_angle_gamma   120.00050000
_symmetry_Int_Tables_number   1
_chemical_formula_structural   Ni2H4C10N4O9
_chemical_formula_sum   'Ni24 H48 C120 N48 O108'
_cell_volume   22446.28994507
_cell_formula_units_Z   12
loop_
 _symmetry_equiv_pos_site_id
 _symmetry_equiv_pos_as_xyz
  1  'x, y, z'
loop_
 _atom_site_type_symbol
 _atom_site_label
 _atom_site_symmetry_multiplicity
 _atom_site_fract_x
 _atom_site_fract_y
 _atom_site_fract_z
 _atom_site_occupancy
  C  C0  1  0.34836000  0.71834000  0.94841000  1.0
  C  C1  1  0.43462000  0.87848000  0.91426000  1.0
  C  C2  1  0.44470000  0.70304000  0.86189000  1.0
  C  C3  1  0.52878000  0.71794000  0.96365000  1.0
  C  C4  1  0.72706000  0.25076000  0.63180000  1.0
  C  C5  1  0.85760000  0.33678000  0.58781000  1.0
  C  C6  1  0.67754000  0.21366000  0.53445000  1.0
  C  C7  1  0.70754000  0.06734000  0.62915000  1.0
  C  C8  1  0.27202000  0.59940000  0.28143000  1.0
  C  C9  1  0.34292000  0.50682000  0.24708000  1.0
  C  C10  1  0.18472000  0.52580000  0.19189000  1.0
  C  C11  1  0.49682000  0.25892000  0.94964000  1.0
  C  C12  1  0.41584000  0.10102000  0.91458000  1.0
  C  C13  1  0.41098000  0.27224000  0.86054000  1.0
  C  C14  1  0.31526000  0.25786000  0.96276000  1.0
  C  C15  1  0.24200000  0.69110000  0.52382000  1.0
  C  C16  1  0.27804000  0.83978000  0.62293000  1.0
  C  C17  1  0.66262000  0.45962000  0.29194000  1.0
  C  C18  1  0.57636000  0.51118000  0.24990000  1.0
  C  C19  1  0.67198000  0.46028000  0.19463000  1.0
  C  C20  1  0.83240000  0.61564000  0.29793000  1.0
  C  C21  1  0.24454000  0.75940000  0.33906000  1.0
  C  C22  1  0.33492000  0.91008000  0.37380000  1.0
  C  C23  1  0.25876000  0.74146000  0.43644000  1.0
  C  C24  1  0.67004000  0.43798000  0.00724000  1.0
  C  C25  1  0.80930000  0.49592000  0.04850000  1.0
  C  C26  1  0.65560000  0.44848000  0.10582000  1.0
  C  C27  1  0.65088000  0.60562000  0.00694000  1.0
  C  C28  1  0.40038000  0.63822000  0.67901000  1.0
  C  C29  1  0.48200000  0.56556000  0.71560000  1.0
  C  C30  1  0.45278000  0.67258000  0.77458000  1.0
  C  C31  1  0.58094000  0.82936000  0.67078000  1.0
  C  C32  1  0.67512000  0.29536000  0.35226000  1.0
  C  C33  1  0.58622000  0.11914000  0.37350000  1.0
  C  C34  1  0.65954000  0.21878000  0.44596000  1.0
  C  C35  1  0.87000000  0.31518000  0.34803000  1.0
  C  C36  1  0.54796000  0.23766000  0.69043000  1.0
  C  C37  1  0.46006000  0.32286000  0.71445000  1.0
  C  C38  1  0.44672000  0.25078000  0.77511000  1.0
  C  C39  1  0.33674000  0.07096000  0.66373000  1.0
  C  C40  1  0.63320000  0.65654000  0.99580000  1.0
  C  C41  1  0.56942000  0.63964000  0.98466000  1.0
  C  C42  1  0.57996000  0.70520000  0.97707000  1.0
  C  C43  1  0.68968000  0.99886000  0.64063000  1.0
  C  C44  1  0.62424000  0.95042000  0.65061000  1.0
  C  C45  1  0.63450000  0.89570000  0.65880000  1.0
  C  C46  1  0.93786000  0.33290000  0.33636000  1.0
  C  C47  1  0.26320000  0.27050000  0.97565000  1.0
  C  C48  1  0.27336000  0.33608000  0.98304000  1.0
  C  C49  1  0.20896000  0.31926000  0.99368000  1.0
  C  C50  1  0.33854000  0.01130000  0.65166000  1.0
  C  C51  1  0.28088000  0.94712000  0.64396000  1.0
  C  C52  1  0.31304000  0.91150000  0.63385000  1.0
  C  C53  1  0.88844000  0.65816000  0.31543000  1.0
  C  C54  1  0.20366000  0.58832000  0.98497000  1.0
  C  C55  1  0.27334000  0.64512000  0.98402000  1.0
  C  C56  1  0.28124000  0.66758000  0.96049000  1.0
  C  C57  1  0.69476000  0.26186000  0.65324000  1.0
  C  C58  1  0.62864000  0.25772000  0.65458000  1.0
  C  C59  1  0.61564000  0.25450000  0.67887000  1.0
  C  C60  1  0.27836000  0.66312000  0.29320000  1.0
  C  C61  1  0.26476000  0.66850000  0.31699000  1.0
  C  C62  1  0.26172000  0.73092000  0.31794000  1.0
  C  C63  1  0.63864000  0.38734000  0.98738000  1.0
  C  C64  1  0.56880000  0.33108000  0.98589000  1.0
  C  C65  1  0.56284000  0.30880000  0.96239000  1.0
  C  C66  1  0.33616000  0.61622000  0.66438000  1.0
  C  C67  1  0.33310000  0.64296000  0.64223000  1.0
  C  C68  1  0.26052000  0.61596000  0.63868000  1.0
  C  C69  1  0.65776000  0.34356000  0.33905000  1.0
  C  C70  1  0.67582000  0.36654000  0.31573000  1.0
  C  C71  1  0.65092000  0.41412000  0.31283000  1.0
  C  C72  1  0.47272000  0.71272000  0.83736000  1.0
  C  C73  1  0.43890000  0.66436000  0.81920000  1.0
  C  C74  1  0.47594000  0.69986000  0.79896000  1.0
  C  C75  1  0.68472000  0.20386000  0.50881000  1.0
  C  C76  1  0.64872000  0.21646000  0.49086000  1.0
  C  C77  1  0.67728000  0.20634000  0.47018000  1.0
  C  C78  1  0.17540000  0.54246000  0.14784000  1.0
  C  C79  1  0.39202000  0.25466000  0.83524000  1.0
  C  C80  1  0.43876000  0.28950000  0.81673000  1.0
  C  C81  1  0.40810000  0.24502000  0.79738000  1.0
  C  C82  1  0.24582000  0.74106000  0.46220000  1.0
  C  C83  1  0.26128000  0.70422000  0.47910000  1.0
  C  C84  1  0.23820000  0.71878000  0.50022000  1.0
  C  C85  1  0.66740000  0.47426000  0.13062000  1.0
  C  C86  1  0.65262000  0.43168000  0.15057000  1.0
  C  C87  1  0.67565000  0.47961000  0.16930000  1.0
  C  C88  1  0.42294000  0.03900000  0.90798000  1.0
  C  C89  1  0.42468000  0.98934000  0.92320000  1.0
  C  C90  1  0.42904000  0.94144000  0.90780000  1.0
  C  C91  1  0.91602000  0.40814000  0.58081000  1.0
  C  C92  1  0.40614000  0.50100000  0.24126000  1.0
  C  C93  1  0.46332000  0.51766000  0.25616000  1.0
  C  C94  1  0.50524000  0.49824000  0.24305000  1.0
  C  C95  1  0.40588000  0.97022000  0.36826000  1.0
  C  C96  1  0.46260000  0.01132000  0.38348000  1.0
  C  C97  1  0.51432000  0.06044000  0.36807000  1.0
  C  C98  1  0.87130000  0.48834000  0.05466000  1.0
  C  C99  1  0.92034000  0.48720000  0.03897000  1.0
  C  C100  1  0.47102000  0.39352000  0.72090000  1.0
  C  C101  1  0.46458000  0.44176000  0.70627000  1.0
  C  C102  1  0.47958000  0.49818000  0.72150000  1.0
  C  C103  1  0.94094000  0.64470000  0.32380000  1.0
  C  C104  1  0.22942000  0.64228000  0.62100000  1.0
  C  C105  1  0.19100000  0.37028000  0.00459000  1.0
  C  C106  1  0.09196000  0.42582000  0.29778000  1.0
  C  C107  1  0.08014000  0.57932000  0.58407000  1.0
  C  C108  1  0.05068000  0.72100000  0.34937000  1.0
  C  C109  1  0.17110000  0.53764000  0.00480000  1.0
  C  C110  1  0.03234000  0.47854000  0.04680000  1.0
  C  C111  1  0.17624000  0.52534000  0.10336000  1.0
  C  C112  1  0.03232000  0.37950000  0.31367000  1.0
  C  C113  1  0.98170000  0.39394000  0.32332000  1.0
  C  C114  1  0.98130000  0.70210000  0.33875000  1.0
  C  C115  1  0.17004000  0.50144000  0.12827000  1.0
  C  C116  1  0.17130000  0.50060000  0.16703000  1.0
  C  C117  1  0.01266000  0.51290000  0.57908000  1.0
  C  C118  1  0.97254000  0.45720000  0.59477000  1.0
  C  C119  1  0.96988000  0.48422000  0.05390000  1.0
  H  H120  1  0.53046000  0.81338000  0.91252000  1.0
  H  H121  1  0.43724000  0.66658000  0.94306000  1.0
  H  H122  1  0.78298000  0.17578000  0.57588000  1.0
  H  H123  1  0.65954000  0.12250000  0.61600000  1.0
  H  H124  1  0.31814000  0.16356000  0.91175000  1.0
  H  H125  1  0.40834000  0.30966000  0.94294000  1.0
  H  H126  1  0.30484000  0.77134000  0.60571000  1.0
  H  H127  1  0.74184000  0.60210000  0.23921000  1.0
  H  H128  1  0.79666000  0.52844000  0.27568000  1.0
  H  H129  1  0.73330000  0.58196000  0.05930000  1.0
  H  H130  1  0.60402000  0.50340000  0.02076000  1.0
  H  H131  1  0.56716000  0.72736000  0.72216000  1.0
  H  H132  1  0.48258000  0.78244000  0.68750000  1.0
  H  H133  1  0.74294000  0.19194000  0.39266000  1.0
  H  H134  1  0.81646000  0.35722000  0.36601000  1.0
  H  H135  1  0.23770000  0.47282000  0.01817000  1.0
  H  H136  1  0.35668000  0.15944000  0.72051000  1.0
  H  H137  1  0.27448000  0.11054000  0.67590000  1.0
  H  H138  1  0.52244000  0.58724000  0.98227000  1.0
  H  H139  1  0.57608000  0.95430000  0.65166000  1.0
  H  H140  1  0.32056000  0.38844000  0.98087000  1.0
  H  H141  1  0.31398000  0.66326000  0.99783000  1.0
  H  H142  1  0.59232000  0.25064000  0.64008000  1.0
  H  H143  1  0.25384000  0.63024000  0.33121000  1.0
  H  H144  1  0.52696000  0.31330000  0.99926000  1.0
  H  H145  1  0.37722000  0.68232000  0.63154000  1.0
  H  H146  1  0.70530000  0.35302000  0.30309000  1.0
  H  H147  1  0.39072000  0.61230000  0.82033000  1.0
  H  H148  1  0.60922000  0.23328000  0.49260000  1.0
  H  H149  1  0.18460000  0.59672000  0.14806000  1.0
  H  H150  1  0.49182000  0.33636000  0.81783000  1.0
  H  H151  1  0.28534000  0.67102000  0.47639000  1.0
  H  H152  1  0.62926000  0.37400000  0.15134000  1.0
  H  H153  1  0.42294000  0.98816000  0.94255000  1.0
  H  H154  1  0.47324000  0.54094000  0.27388000  1.0
  H  H155  1  0.46552000  0.00674000  0.40267000  1.0
  H  H156  1  0.92014000  0.48862000  0.01962000  1.0
  H  H157  1  0.45114000  0.43664000  0.68745000  1.0
  H  H158  1  0.95062000  0.60172000  0.31877000  1.0
  H  H159  1  0.22426000  0.92912000  0.64551000  1.0
  H  H160  1  0.18152000  0.42180000  0.24402000  1.0
  H  H161  1  0.13032000  0.51460000  0.27602000  1.0
  H  H162  1  0.16776000  0.73884000  0.57411000  1.0
  H  H163  1  0.18228000  0.81832000  0.39687000  1.0
  H  H164  1  0.11556000  0.68106000  0.35940000  1.0
  H  H165  1  0.10938000  0.39398000  0.05698000  1.0
  H  H166  1  0.97614000  0.44072000  0.32057000  1.0
  H  H167  1  0.98340000  0.45256000  0.61339000  1.0
  N  N168  1  0.64596000  0.75756000  0.98345000  1.0
  N  N169  1  0.67860000  0.72784000  0.99478000  1.0
  N  N170  1  0.70204000  0.91112000  0.65388000  1.0
  N  N171  1  0.73576000  0.97410000  0.64291000  1.0
  N  N172  1  0.38484000  0.95234000  0.63556000  1.0
  N  N173  1  0.40034000  0.01296000  0.64638000  1.0
  N  N174  1  0.89692000  0.71916000  0.32512000  1.0
  N  N175  1  0.21962000  0.62684000  0.94851000  1.0
  N  N176  1  0.67120000  0.25780000  0.69101000  1.0
  N  N177  1  0.71932000  0.26214000  0.67541000  1.0
  N  N178  1  0.27332000  0.76090000  0.29609000  1.0
  N  N179  1  0.28348000  0.71948000  0.28098000  1.0
  N  N180  1  0.62564000  0.34908000  0.95098000  1.0
  N  N181  1  0.67168000  0.39712000  0.96616000  1.0
  N  N182  1  0.26936000  0.57566000  0.67313000  1.0
  N  N183  1  0.62020000  0.41878000  0.33319000  1.0
  N  N184  1  0.62388000  0.37530000  0.34912000  1.0
  N  N185  1  0.52964000  0.76576000  0.80484000  1.0
  N  N186  1  0.52750000  0.77372000  0.82835000  1.0
  N  N187  1  0.72726000  0.18838000  0.47561000  1.0
  N  N188  1  0.73182000  0.18686000  0.49925000  1.0
  N  N189  1  0.34554000  0.18744000  0.80396000  1.0
  N  N190  1  0.33588000  0.19314000  0.82714000  1.0
  N  N191  1  0.70242000  0.54688000  0.16088000  1.0
  N  N192  1  0.69752000  0.54362000  0.13721000  1.0
  N  N193  1  0.42982000  0.96182000  0.88499000  1.0
  N  N194  1  0.42610000  0.02126000  0.88510000  1.0
  N  N195  1  0.47448000  0.47164000  0.22170000  1.0
  N  N196  1  0.41386000  0.47330000  0.22061000  1.0
  N  N197  1  0.48950000  0.04830000  0.34550000  1.0
  N  N198  1  0.42344000  0.99375000  0.34564000  1.0
  N  N199  1  0.49356000  0.48370000  0.74361000  1.0
  N  N200  1  0.48880000  0.42012000  0.74321000  1.0
  N  N201  1  0.96128000  0.28566000  0.33442000  1.0
  N  N202  1  0.92270000  0.43388000  0.55844000  1.0
  N  N203  1  0.89082000  0.48600000  0.07736000  1.0
  N  N204  1  0.22332000  0.57602000  0.65757000  1.0
  N  N205  1  0.19678000  0.21816000  0.98166000  1.0
  N  N206  1  0.01928000  0.31436000  0.32081000  1.0
  N  N207  1  0.16358000  0.24798000  0.99258000  1.0
  N  N208  1  0.95392000  0.74626000  0.33918000  1.0
  N  N209  1  0.17252000  0.57838000  0.96337000  1.0
  N  N210  1  0.16360000  0.43788000  0.15922000  1.0
  N  N211  1  0.16240000  0.43822000  0.13547000  1.0
  N  N212  1  0.21072000  0.76192000  0.49603000  1.0
  N  N213  1  0.21535000  0.77553000  0.47276000  1.0
  N  N214  1  0.98176000  0.49734000  0.55734000  1.0
  N  N215  1  0.95108000  0.48370000  0.07690000  1.0
  Ni  Ni216  1  0.41154000  0.74516000  0.90215000  1.0
  Ni  Ni217  1  0.49064000  0.82236000  0.94858000  1.0
  Ni  Ni218  1  0.71462000  0.23034000  0.58085000  1.0
  Ni  Ni219  1  0.81926000  0.20678000  0.61343000  1.0
  Ni  Ni220  1  0.24132000  0.54212000  0.23477000  1.0
  Ni  Ni221  1  0.23038000  0.45666000  0.28053000  1.0
  Ni  Ni222  1  0.43780000  0.23430000  0.90272000  1.0
  Ni  Ni223  1  0.35478000  0.15404000  0.94830000  1.0
  Ni  Ni224  1  0.68570000  0.47782000  0.24194000  1.0
  Ni  Ni225  1  0.70204000  0.59934000  0.27651000  1.0
  Ni  Ni226  1  0.25608000  0.77108000  0.39019000  1.0
  Ni  Ni227  1  0.66760000  0.45820000  0.05801000  1.0
  Ni  Ni228  1  0.76330000  0.57830000  0.02145000  1.0
  Ni  Ni229  1  0.44492000  0.66608000  0.72751000  1.0
  Ni  Ni230  1  0.54342000  0.68542000  0.68449000  1.0
  Ni  Ni231  1  0.67098000  0.24098000  0.39917000  1.0
  Ni  Ni232  1  0.72486000  0.20042000  0.35371000  1.0
  Ni  Ni233  1  0.47404000  0.20880000  0.73334000  1.0
  Ni  Ni234  1  0.40554000  0.20504000  0.68446000  1.0
  Ni  Ni235  1  0.22224000  0.67014000  0.57121000  1.0
  Ni  Ni236  1  0.14888000  0.70756000  0.61242000  1.0
  Ni  Ni237  1  0.18990000  0.84088000  0.35781000  1.0
  Ni  Ni238  1  0.17488000  0.51764000  0.05555000  1.0
  Ni  Ni239  1  0.07842000  0.39732000  0.01919000  1.0
  O  O240  1  0.40858000  0.75062000  0.96040000  1.0
  O  O241  1  0.34568000  0.72726000  0.92530000  1.0
  O  O242  1  0.42642000  0.83330000  0.89724000  1.0
  O  O243  1  0.46818000  0.75700000  0.87688000  1.0
  O  O244  1  0.44526000  0.86792000  0.93673000  1.0
  O  O245  1  0.38662000  0.64274000  0.86756000  1.0
  O  O246  1  0.47368000  0.66292000  0.95330000  1.0
  O  O247  1  0.54134000  0.78482000  0.96231000  1.0
  O  O248  1  0.48804000  0.77712000  0.92149000  1.0
  O  O249  1  0.77090000  0.22616000  0.63511000  1.0
  O  O250  1  0.70454000  0.25750000  0.61063000  1.0
  O  O251  1  0.79716000  0.31168000  0.57603000  1.0
  O  O252  1  0.71852000  0.20638000  0.55025000  1.0
  O  O253  1  0.86942000  0.30040000  0.60439000  1.0
  O  O254  1  0.63338000  0.23530000  0.54164000  1.0
  O  O255  1  0.65436000  0.07930000  0.62459000  1.0
  O  O256  1  0.77588000  0.11372000  0.62392000  1.0
  O  O257  1  0.75588000  0.17900000  0.58968000  1.0
  O  O258  1  0.24232000  0.53838000  0.29292000  1.0
  O  O259  1  0.28998000  0.60396000  0.25882000  1.0
  O  O260  1  0.30970000  0.51952000  0.22989000  1.0
  O  O261  1  0.32190000  0.50042000  0.26944000  1.0
  O  O262  1  0.19852000  0.59130000  0.19658000  1.0
  O  O263  1  0.43562000  0.22522000  0.96102000  1.0
  O  O264  1  0.50172000  0.25268000  0.92650000  1.0
  O  O265  1  0.42590000  0.14736000  0.89777000  1.0
  O  O266  1  0.38346000  0.22150000  0.87677000  1.0
  O  O267  1  0.40138000  0.10914000  0.93688000  1.0
  O  O268  1  0.46948000  0.33246000  0.86594000  1.0
  O  O269  1  0.37110000  0.31306000  0.95279000  1.0
  O  O270  1  0.30284000  0.19098000  0.96150000  1.0
  O  O271  1  0.35926000  0.19994000  0.92118000  1.0
  O  O272  1  0.23338000  0.62990000  0.59822000  1.0
  O  O273  1  0.27064000  0.65000000  0.52605000  1.0
  O  O274  1  0.32082000  0.81830000  0.61395000  1.0
  O  O275  1  0.66716000  0.52190000  0.29553000  1.0
  O  O276  1  0.67376000  0.43862000  0.27117000  1.0
  O  O277  1  0.59746000  0.46736000  0.24205000  1.0
  O  O278  1  0.69582000  0.50914000  0.21155000  1.0
  O  O279  1  0.61636000  0.56814000  0.26280000  1.0
  O  O280  1  0.64338000  0.39248000  0.20068000  1.0
  O  O281  1  0.83010000  0.55824000  0.28874000  1.0
  O  O282  1  0.78772000  0.63886000  0.29211000  1.0
  O  O283  1  0.73530000  0.56922000  0.25257000  1.0
  O  O284  1  0.27482000  0.75912000  0.35946000  1.0
  O  O285  1  0.32638000  0.86344000  0.39036000  1.0
  O  O286  1  0.24142000  0.77744000  0.42153000  1.0
  O  O287  1  0.28504000  0.89936000  0.35832000  1.0
  O  O288  1  0.28672000  0.70398000  0.42793000  1.0
  O  O289  1  0.70970000  0.50588000  0.00178000  1.0
  O  O290  1  0.65450000  0.41394000  0.02931000  1.0
  O  O291  1  0.75294000  0.46484000  0.06240000  1.0
  O  O292  1  0.67502000  0.49336000  0.08777000  1.0
  O  O293  1  0.81444000  0.53598000  0.03004000  1.0
  O  O294  1  0.62932000  0.37986000  0.10148000  1.0
  O  O295  1  0.59790000  0.54100000  0.01223000  1.0
  O  O296  1  0.71946000  0.62726000  0.01119000  1.0
  O  O297  1  0.70430000  0.54778000  0.04653000  1.0
  O  O298  1  0.46454000  0.67392000  0.66958000  1.0
  O  O299  1  0.39054000  0.62020000  0.70167000  1.0
  O  O300  1  0.46646000  0.59720000  0.73255000  1.0
  O  O301  1  0.48866000  0.70702000  0.75532000  1.0
  O  O302  1  0.49776000  0.59158000  0.69376000  1.0
  O  O303  1  0.39148000  0.61272000  0.77177000  1.0
  O  O304  1  0.52094000  0.82480000  0.67852000  1.0
  O  O305  1  0.59596000  0.77692000  0.67323000  1.0
  O  O306  1  0.52726000  0.72002000  0.71151000  1.0
  O  O307  1  0.71814000  0.27518000  0.34285000  1.0
  O  O308  1  0.64400000  0.27202000  0.37316000  1.0
  O  O309  1  0.60170000  0.14946000  0.39458000  1.0
  O  O310  1  0.69352000  0.21506000  0.42698000  1.0
  O  O311  1  0.62878000  0.14774000  0.35515000  1.0
  O  O312  1  0.61126000  0.23850000  0.44319000  1.0
  O  O313  1  0.85988000  0.36670000  0.35635000  1.0
  O  O314  1  0.82122000  0.24630000  0.34933000  1.0
  O  O315  1  0.73880000  0.23004000  0.38414000  1.0
  O  O316  1  0.18830000  0.59034000  0.09885000  1.0
  O  O317  1  0.24388000  0.43498000  0.00984000  1.0
  O  O318  1  0.50110000  0.24886000  0.67910000  1.0
  O  O319  1  0.53650000  0.21062000  0.71196000  1.0
  O  O320  1  0.49702000  0.29982000  0.72646000  1.0
  O  O321  1  0.41590000  0.20706000  0.75695000  1.0
  O  O322  1  0.41332000  0.28450000  0.69786000  1.0
  O  O323  1  0.51628000  0.29528000  0.77438000  1.0
  O  O324  1  0.27568000  0.06928000  0.66764000  1.0
  O  O325  1  0.39802000  0.12656000  0.67035000  1.0
  O  O326  1  0.40052000  0.16456000  0.71289000  1.0
  O  O327  1  0.18662000  0.56168000  0.02686000  1.0
  O  O328  1  0.19648000  0.49042000  0.20871000  1.0
  O  O329  1  0.09352000  0.48240000  0.28807000  1.0
  O  O330  1  0.14160000  0.40758000  0.29390000  1.0
  O  O331  1  0.19048000  0.46458000  0.25339000  1.0
  O  O332  1  0.20150000  0.67996000  0.62891000  1.0
  O  O333  1  0.13096000  0.60078000  0.56792000  1.0
  O  O334  1  0.21646000  0.70636000  0.54284000  1.0
  O  O335  1  0.08608000  0.61514000  0.60390000  1.0
  O  O336  1  0.20670000  0.79992000  0.62266000  1.0
  O  O337  1  0.19854000  0.73042000  0.58528000  1.0
  O  O338  1  0.20122000  0.78528000  0.33660000  1.0
  O  O339  1  0.06978000  0.67186000  0.35140000  1.0
  O  O340  1  0.09310000  0.78912000  0.35518000  1.0
  O  O341  1  0.18520000  0.78966000  0.38351000  1.0
  O  O342  1  0.13144000  0.46970000  0.99939000  1.0
  O  O343  1  0.08932000  0.51010000  0.06037000  1.0
  O  O344  1  0.16924000  0.48312000  0.08535000  1.0
  O  O345  1  0.02702000  0.43924000  0.02809000  1.0
  O  O346  1  0.12232000  0.34860000  0.00872000  1.0
  O  O347  1  0.13804000  0.42800000  0.04413000  1.0
