# generated using pymatgen
data_DyH10C8(NO4)2
_symmetry_space_group_name_H-M   'P 1'
_cell_length_a   15.54950000
_cell_length_b   38.97131174
_cell_length_c   38.96660000
_cell_angle_alpha   59.99600000
_cell_angle_beta   90.00200000
_cell_angle_gamma   90.00000000
_symmetry_Int_Tables_number   1
_chemical_formula_structural   DyH10C8(NO4)2
_chemical_formula_sum   'Dy18 H180 C144 N36 O144'
_cell_volume   20448.76533695
_cell_formula_units_Z   18
loop_
 _symmetry_equiv_pos_site_id
 _symmetry_equiv_pos_as_xyz
  1  'x, y, z'
loop_
 _atom_site_type_symbol
 _atom_site_label
 _atom_site_symmetry_multiplicity
 _atom_site_fract_x
 _atom_site_fract_y
 _atom_site_fract_z
 _atom_site_occupancy
  C  C0  1  0.99074000  0.75102000  0.03289000  1.0
  C  C1  1  0.72688000  0.67776000  0.14610000  1.0
  C  C2  1  0.05012000  0.65855000  0.13827000  1.0
  C  C3  1  0.99364000  0.72424000  0.17047000  1.0
  C  C4  1  0.92954000  0.01328000  0.18609000  1.0
  C  C5  1  0.76614000  0.12690000  0.15238000  1.0
  C  C6  1  0.04358000  0.13988000  0.16185000  1.0
  C  C7  1  0.97210000  0.12629000  0.05782000  1.0
  C  C8  1  0.00470000  0.13820500  0.78870500  1.0
  C  C9  1  0.71180000  0.14967000  0.68373000  1.0
  C  C10  1  0.02020000  0.16940000  0.67323000  1.0
  C  C11  1  0.93386000  0.05270000  0.77121000  1.0
  C  C12  1  0.95838000  0.82581000  0.92296000  1.0
  C  C13  1  0.11410000  0.86229000  0.78453000  1.0
  C  C14  1  0.84668000  0.83903000  0.80365000  1.0
  C  C15  1  0.92120000  0.93904000  0.82097000  1.0
  C  C16  1  0.05106000  0.91660000  0.21848000  1.0
  C  C17  1  0.22980000  0.83631000  0.29618000  1.0
  C  C18  1  0.94184000  0.81797000  0.30336000  1.0
  C  C19  1  0.02656000  0.79686000  0.20823000  1.0
  C  C20  1  0.99572000  0.15594000  0.85920000  1.0
  C  C21  1  0.14958000  0.28856000  0.83440000  1.0
  C  C22  1  0.87632000  0.28532000  0.82564000  1.0
  C  C23  1  0.96694000  0.19516000  0.94537000  1.0
  C  C24  1  0.62094000  0.45726000  0.68941000  1.0
  C  C25  1  0.37708000  0.32460000  0.79435000  1.0
  C  C26  1  0.64900000  0.32739000  0.80136000  1.0
  C  C27  1  0.54240000  0.42557000  0.79926000  1.0
  C  C28  1  0.47372000  0.69911000  0.81579000  1.0
  C  C29  1  0.34310000  0.83477000  0.76971000  1.0
  C  C30  1  0.61422000  0.82085000  0.78693000  1.0
  C  C31  1  0.53646000  0.80161000  0.68975000  1.0
  C  C32  1  0.73140000  0.79860000  0.44739000  1.0
  C  C33  1  0.41386000  0.78174000  0.36813000  1.0
  C  C34  1  0.71476000  0.80795000  0.34178000  1.0
  C  C35  1  0.63474000  0.70125000  0.45776000  1.0
  C  C36  1  0.70004000  0.47587000  0.60671000  1.0
  C  C37  1  0.84620000  0.50894000  0.48643000  1.0
  C  C38  1  0.54904000  0.48279000  0.49274000  1.0
  C  C39  1  0.62106000  0.58862000  0.50172000  1.0
  C  C40  1  0.51484000  0.59210000  0.84446000  1.0
  C  C41  1  0.70376000  0.48371000  0.95595000  1.0
  C  C42  1  0.38230000  0.46928000  0.93939000  1.0
  C  C43  1  0.52580000  0.45537000  0.87924000  1.0
  C  C44  1  0.73416000  0.81983000  0.51377000  1.0
  C  C45  1  0.87866000  0.94469000  0.49776000  1.0
  C  C46  1  0.58118000  0.94655000  0.48328000  1.0
  C  C47  1  0.67902000  0.85018000  0.59659000  1.0
  C  C48  1  0.28664000  0.08287000  0.35837000  1.0
  C  C49  1  0.08450000  0.00465000  0.45061000  1.0
  C  C50  1  0.36870000  0.99859000  0.47817000  1.0
  C  C51  1  0.30790000  0.09554000  0.48278000  1.0
  C  C52  1  0.17648000  0.34927000  0.47173000  1.0
  C  C53  1  0.07074000  0.48623000  0.46124000  1.0
  C  C54  1  0.32240000  0.45839000  0.47503000  1.0
  C  C55  1  0.22830000  0.46228000  0.36464000  1.0
  C  C56  1  0.17834000  0.45550000  0.10485000  1.0
  C  C57  1  0.90110000  0.44269000  0.02375000  1.0
  C  C58  1  0.17910000  0.45621000  0.00109000  1.0
  C  C59  1  0.15350000  0.34951000  0.12208000  1.0
  C  C60  1  0.39516000  0.15409000  0.28892000  1.0
  C  C61  1  0.57320000  0.16047000  0.19046000  1.0
  C  C62  1  0.26132000  0.15542000  0.19733000  1.0
  C  C63  1  0.28384000  0.25518000  0.15608000  1.0
  C  C64  1  0.26508000  0.26871000  0.48970000  1.0
  C  C65  1  0.53236000  0.17543000  0.60617000  1.0
  C  C66  1  0.24098000  0.17835000  0.62807000  1.0
  C  C67  1  0.31128000  0.14792000  0.54472000  1.0
  C  C68  1  0.29242000  0.48837000  0.17139000  1.0
  C  C69  1  0.54664000  0.60211000  0.16765000  1.0
  C  C70  1  0.27584000  0.61342000  0.16521000  1.0
  C  C71  1  0.34992000  0.51186000  0.26569000  1.0
  C  C72  1  0.62760000  0.61868000  0.17509000  1.0
  C  C73  1  0.63994000  0.66258000  0.14321000  1.0
  C  C74  1  0.66434000  0.16023000  0.17700000  1.0
  C  C75  1  0.68434000  0.12264000  0.17471000  1.0
  C  C76  1  0.59970000  0.15006000  0.63628000  1.0
  C  C77  1  0.64816000  0.17421000  0.65166000  1.0
  C  C78  1  0.27378000  0.84630000  0.78916000  1.0
  C  C79  1  0.18526000  0.84492000  0.77185000  1.0
  C  C80  1  0.34562000  0.78932000  0.33777000  1.0
  C  C81  1  0.29202000  0.82589000  0.32933000  1.0
  C  C82  1  0.21672000  0.31484000  0.80517000  1.0
  C  C83  1  0.30716000  0.30039000  0.82281000  1.0
  C  C84  1  0.91224000  0.49465000  0.46801000  1.0
  C  C85  1  0.00340000  0.49499000  0.48343000  1.0
  C  C86  1  0.79910000  0.47878000  0.96473000  1.0
  C  C87  1  0.81670000  0.44144000  0.00553000  1.0
  C  C88  1  0.93356000  0.98121000  0.47559000  1.0
  C  C89  1  0.02462000  0.96970000  0.46911000  1.0
  C  C90  1  0.12252000  0.62983000  0.14672000  1.0
  C  C91  1  0.20914000  0.64516000  0.15278000  1.0
  C  C92  1  0.18530000  0.13215000  0.19639000  1.0
  C  C93  1  0.10788000  0.15951000  0.17522000  1.0
  C  C94  1  0.09248000  0.18987000  0.64447000  1.0
  C  C95  1  0.17668000  0.16628000  0.66061000  1.0
  C  C96  1  0.68690000  0.83753000  0.79931000  1.0
  C  C97  1  0.77312000  0.82483000  0.78945000  1.0
  C  C98  1  0.87244000  0.81233000  0.33240000  1.0
  C  C99  1  0.78466000  0.82387000  0.31154000  1.0
  C  C100  1  0.80674000  0.31496000  0.80326000  1.0
  C  C101  1  0.71868000  0.29760000  0.82193000  1.0
  C  C102  1  0.48098000  0.46462000  0.47946000  1.0
  C  C103  1  0.39234000  0.46922000  0.49419000  1.0
  C  C104  1  0.24920000  0.47815000  0.97133000  1.0
  C  C105  1  0.29924000  0.45095000  0.95995000  1.0
  C  C106  1  0.43838000  0.96782000  0.49551000  1.0
  C  C107  1  0.50684000  0.97401000  0.46433000  1.0
  C  C108  1  0.98182000  0.81297000  0.96510000  1.0
  C  C109  1  0.98858000  0.76719000  0.98897000  1.0
  C  C110  1  0.03304000  0.95574000  0.21581000  1.0
  C  C111  1  0.94484000  0.97142000  0.19563000  1.0
  C  C112  1  0.07090000  0.12748000  0.82083000  1.0
  C  C113  1  0.03022000  0.11938000  0.86035000  1.0
  C  C114  1  0.98732000  0.13824000  0.01516000  1.0
  C  C115  1  0.94750000  0.17937000  0.98833000  1.0
  C  C116  1  0.96643000  0.01070000  0.79059000  1.0
  C  C117  1  0.89428000  0.98007000  0.81090000  1.0
  C  C118  1  0.00394000  0.78271000  0.17990000  1.0
  C  C119  1  0.03058000  0.73911000  0.19605000  1.0
  C  C120  1  0.69524000  0.48381000  0.66683000  1.0
  C  C121  1  0.74530000  0.46712000  0.64416500  1.0
  C  C122  1  0.52990000  0.63602000  0.82244000  1.0
  C  C123  1  0.45170000  0.65720000  0.82790000  1.0
  C  C124  1  0.78164000  0.78557000  0.51470000  1.0
  C  C125  1  0.80734000  0.79440000  0.47292000  1.0
  C  C126  1  0.65776000  0.82878000  0.64014000  1.0
  C  C127  1  0.56334000  0.81439000  0.64811000  1.0
  C  C128  1  0.65950000  0.65862000  0.48538000  1.0
  C  C129  1  0.58872000  0.62976000  0.48768000  1.0
  C  C130  1  0.51548000  0.42904000  0.86149000  1.0
  C  C131  1  0.55136000  0.44999000  0.81887000  1.0
  C  C132  1  0.42216000  0.12480000  0.33060000  1.0
  C  C133  1  0.34594000  0.11254000  0.35988000  1.0
  C  C134  1  0.19218000  0.29049000  0.46168000  1.0
  C  C135  1  0.13512000  0.31199000  0.47754000  1.0
  C  C136  1  0.25288000  0.46588000  0.12272000  1.0
  C  C137  1  0.22282000  0.47141000  0.15745000  1.0
  C  C138  1  0.33822000  0.49238000  0.30983000  1.0
  C  C139  1  0.24532000  0.47735000  0.32151000  1.0
  C  C140  1  0.20044000  0.31262000  0.15123000  1.0
  C  C141  1  0.21888000  0.28663000  0.13259000  1.0
  C  C142  1  0.27798000  0.12226000  0.52881000  1.0
  C  C143  1  0.34380000  0.11798000  0.50162000  1.0
  Dy  Dy144  1  0.91490000  0.70967000  0.11852000  1.0
  Dy  Dy145  1  0.94486000  0.10478000  0.13309000  1.0
  Dy  Dy146  1  0.89242000  0.13011000  0.72568000  1.0
  Dy  Dy147  1  0.96118000  0.86782000  0.83255000  1.0
  Dy  Dy148  1  0.07160000  0.82643000  0.25272000  1.0
  Dy  Dy149  1  0.99342000  0.23114000  0.86783000  1.0
  Dy  Dy150  1  0.53078000  0.38436000  0.76044000  1.0
  Dy  Dy151  1  0.49830000  0.78931000  0.76125000  1.0
  Dy  Dy152  1  0.59866000  0.77636000  0.40091000  1.0
  Dy  Dy153  1  0.66470000  0.51681000  0.51593000  1.0
  Dy  Dy154  1  0.53314000  0.50429000  0.91026000  1.0
  Dy  Dy155  1  0.70828000  0.89606000  0.51963000  1.0
  Dy  Dy156  1  0.24106000  0.05715000  0.44793000  1.0
  Dy  Dy157  1  0.20062000  0.43937000  0.44016000  1.0
  Dy  Dy158  1  0.07658000  0.41542000  0.06512000  1.0
  Dy  Dy159  1  0.39924000  0.19838000  0.19702000  1.0
  Dy  Dy160  1  0.35186000  0.20189000  0.56687000  1.0
  Dy  Dy161  1  0.38250000  0.55089000  0.18671000  1.0
  H  H162  1  0.70782000  0.59532000  0.14888000  1.0
  H  H163  1  0.69644000  0.56597000  0.19902000  1.0
  H  H164  1  0.62268000  0.61661000  0.20456000  1.0
  H  H165  1  0.63182000  0.66666667  0.11302333  1.0
  H  H166  1  0.59006000  0.68041000  0.14764000  1.0
  H  H167  1  0.71626000  0.14119000  0.23291000  1.0
  H  H168  1  0.71854000  0.19129000  0.20204000  1.0
  H  H169  1  0.67176000  0.18676000  0.14702000  1.0
  H  H170  1  0.68810000  0.09629000  0.20496000  1.0
  H  H171  1  0.63132000  0.11794000  0.15836000  1.0
  H  H172  1  0.68922000  0.15764000  0.59324000  1.0
  H  H173  1  0.62890000  0.11556000  0.61105000  1.0
  H  H174  1  0.56710000  0.12458000  0.66163000  1.0
  H  H175  1  0.68218000  0.19953000  0.62674000  1.0
  H  H176  1  0.60026000  0.18617000  0.66415000  1.0
  H  H177  1  0.25232000  0.89232000  0.80029000  1.0
  H  H178  1  0.35524000  0.88817000  0.78996000  1.0
  H  H179  1  0.27368000  0.82494000  0.82163000  1.0
  H  H180  1  0.18862000  0.86168000  0.73892000  1.0
  H  H181  1  0.16958000  0.81350000  0.78177000  1.0
  H  H182  1  0.25888000  0.74726000  0.37758000  1.0
  H  H183  1  0.32638000  0.73012000  0.35485000  1.0
  H  H184  1  0.37792000  0.79559000  0.30973000  1.0
  H  H185  1  0.25534000  0.81947000  0.35640000  1.0
  H  H186  1  0.33534000  0.85151000  0.32132000  1.0
  H  H187  1  0.24388000  0.37493000  0.77311000  1.0
  H  H188  1  0.14014000  0.36466000  0.78653000  1.0
  H  H189  1  0.21022000  0.31335000  0.77748000  1.0
  H  H190  1  0.31422000  0.30137000  0.85071000  1.0
  H  H191  1  0.31480000  0.26922000  0.82970000  1.0
  H  H192  1  0.92016000  0.54935000  0.41592000  1.0
  H  H193  1  0.84926000  0.51687000  0.41398000  1.0
  H  H194  1  0.89626000  0.46374000  0.47588000  1.0
  H  H195  1  0.01702000  0.52465000  0.47977000  1.0
  H  H196  1  0.00670000  0.47234000  0.51542000  1.0
  H  H197  1  0.79964000  0.52071000  0.98313000  1.0
  H  H198  1  0.82764000  0.53891000  0.93472000  1.0
  H  H199  1  0.83254000  0.47513000  0.94153000  1.0
  H  H200  1  0.76572000  0.43829000  0.02692000  1.0
  H  H201  1  0.81442000  0.41485000  0.00204000  1.0
  H  H202  1  0.96498000  0.02991000  0.48126000  1.0
  H  H203  1  0.87580000  0.00628000  0.50598000  1.0
  H  H204  1  0.90360000  0.00114000  0.44622000  1.0
  H  H205  1  0.05218000  0.94646000  0.49774000  1.0
  H  H206  1  0.01960000  0.95743000  0.44887000  1.0
  H  H207  1  0.13820000  0.64679000  0.08723000  1.0
  H  H208  1  0.07416000  0.60621000  0.11321000  1.0
  H  H209  1  0.10556000  0.60191000  0.17429000  1.0
  H  H210  1  0.22942000  0.67181000  0.12478000  1.0
  H  H211  1  0.20198000  0.65279000  0.17655000  1.0
  H  H212  1  0.14838000  0.11477000  0.25426000  1.0
  H  H213  1  0.21044000  0.08108000  0.24984000  1.0
  H  H214  1  0.20504000  0.11706000  0.17979000  1.0
  H  H215  1  0.07538000  0.16813000  0.19517000  1.0
  H  H216  1  0.12954000  0.18738000  0.14875000  1.0
  H  H217  1  0.11514000  0.23173000  0.66180000  1.0
  H  H218  1  0.04880000  0.24754000  0.62175000  1.0
  H  H219  1  0.07530000  0.19009000  0.61663000  1.0
  H  H220  1  0.20356000  0.17142000  0.68409000  1.0
  H  H221  1  0.16390000  0.13410000  0.67337000  1.0
  H  H222  1  0.68332000  0.79309000  0.85882000  1.0
  H  H223  1  0.62440000  0.83435000  0.84794000  1.0
  H  H224  1  0.68298000  0.87044000  0.78224000  1.0
  H  H225  1  0.77604000  0.79196000  0.80425000  1.0
  H  H226  1  0.77836000  0.83772000  0.75684000  1.0
  H  H227  1  0.89578000  0.86574000  0.33105000  1.0
  H  H228  1  0.94672000  0.82565000  0.36848000  1.0
  H  H229  1  0.87126000  0.78029000  0.35526000  1.0
  H  H230  1  0.77918000  0.85663000  0.29317000  1.0
  H  H231  1  0.77754000  0.81049000  0.29231500  1.0
  H  H232  1  0.79820000  0.30155000  0.75778000  1.0
  H  H233  1  0.86578000  0.33993000  0.74815000  1.0
  H  H234  1  0.81848000  0.34178000  0.80578000  1.0
  H  H235  1  0.70522000  0.27073000  0.81975000  1.0
  H  H236  1  0.71966000  0.28953000  0.85362000  1.0
  H  H237  1  0.50334000  0.40664000  0.52484000  1.0
  H  H238  1  0.55724000  0.41978000  0.48182000  1.0
  H  H239  1  0.48046000  0.48087000  0.44647000  1.0
  H  H240  1  0.38840000  0.44992000  0.52690000  1.0
  H  H241  1  0.38304000  0.50061000  0.48630000  1.0
  H  H242  1  0.33326000  0.47458000  0.01467000  1.0
  H  H243  1  0.27616000  0.51783000  0.99101000  1.0
  H  H244  1  0.21876000  0.50250000  0.94427000  1.0
  H  H245  1  0.31410000  0.42197000  0.98662000  1.0
  H  H246  1  0.25880000  0.44538000  0.93975000  1.0
  H  H247  1  0.36520000  0.92461000  0.49261000  1.0
  H  H248  1  0.36392000  0.92177000  0.53783000  1.0
  H  H249  1  0.46938000  0.97128000  0.51933000  1.0
  H  H250  1  0.47858000  0.96950000  0.44068000  1.0
  H  H251  1  0.53194000  0.00478000  0.45065000  1.0
  H  H252  1  0.93688000  0.82457000  0.00846000  1.0
  H  H253  1  0.90310000  0.85729000  0.96275000  1.0
  H  H254  1  0.04506000  0.82606000  0.96572000  1.0
  H  H255  1  0.93382000  0.75339000  0.98191000  1.0
  H  H256  1  0.04898000  0.75833000  0.98026000  1.0
  H  H257  1  0.09778000  0.00890000  0.19638000  1.0
  H  H258  1  0.16226000  0.97106000  0.20473000  1.0
  H  H259  1  0.03040000  0.95132000  0.24632000  1.0
  H  H260  1  0.94068000  0.96993000  0.16790000  1.0
  H  H261  1  0.89360000  0.95236000  0.21624000  1.0
  H  H262  1  0.11128000  0.18612000  0.79789000  1.0
  H  H263  1  0.17426000  0.15852000  0.78520000  1.0
  H  H264  1  0.10214000  0.09936000  0.82671000  1.0
  H  H265  1  0.97744000  0.09746000  0.86823000  1.0
  H  H266  1  0.08034000  0.10610500  0.88376500  1.0
  H  H267  1  0.96394000  0.11498000  0.97850000  1.0
  H  H268  1  0.97176000  0.08055000  0.02680000  1.0
  H  H269  1  0.05786000  0.13936000  0.00980000  1.0
  H  H270  1  0.87660000  0.17784000  0.99254000  1.0
  H  H271  1  0.97462000  0.20044000  0.99687000  1.0
  H  H272  1  0.01494000  0.01124000  0.84011000  1.0
  H  H273  1  0.08964000  0.02088000  0.80422000  1.0
  H  H274  1  0.99312000  0.00690000  0.76621000  1.0
  H  H275  1  0.87228000  0.97957000  0.83827000  1.0
  H  H276  1  0.83726000  0.98807000  0.79119000  1.0
  H  H277  1  0.01924000  0.80390000  0.11975000  1.0
  H  H278  1  0.03542000  0.83841000  0.13269000  1.0
  H  H279  1  0.93296000  0.78572000  0.17549000  1.0
  H  H280  1  0.10184000  0.73692000  0.19621000  1.0
  H  H281  1  0.00538000  0.72064000  0.22665000  1.0
  H  H282  1  0.80212000  0.50727000  0.67932000  1.0
  H  H283  1  0.71954000  0.49761000  0.71088000  1.0
  H  H284  1  0.67060000  0.51396000  0.64546000  1.0
  H  H285  1  0.81026000  0.48084000  0.63626000  1.0
  H  H286  1  0.75372000  0.43456000  0.66320000  1.0
  H  H287  1  0.55884000  0.67986000  0.76516000  1.0
  H  H288  1  0.59480000  0.63455000  0.77672000  1.0
  H  H289  1  0.58860000  0.64231000  0.83477000  1.0
  H  H290  1  0.39622000  0.65642000  0.81030000  1.0
  H  H291  1  0.43354000  0.64183000  0.85977000  1.0
  H  H292  1  0.67202000  0.75112000  0.52267000  1.0
  H  H293  1  0.72472000  0.74025000  0.56528000  1.0
  H  H294  1  0.84282000  0.78155000  0.53110000  1.0
  H  H295  1  0.84548000  0.82225000  0.45836000  1.0
  H  H296  1  0.84878000  0.76984000  0.47582000  1.0
  H  H297  1  0.64234000  0.88147000  0.64107000  1.0
  H  H298  1  0.74176000  0.86022000  0.65598000  1.0
  H  H299  1  0.70072000  0.80254000  0.65509000  1.0
  H  H300  1  0.51904000  0.83818000  0.62744000  1.0
  H  H301  1  0.55624000  0.78880000  0.64322000  1.0
  H  H302  1  0.62674000  0.66059000  0.53611000  1.0
  H  H303  1  0.73316000  0.66842000  0.52408000  1.0
  H  H304  1  0.71944000  0.65335000  0.47314000  1.0
  H  H305  1  0.53442000  0.62896000  0.50663000  1.0
  H  H306  1  0.56232000  0.64012000  0.45758000  1.0
  H  H307  1  0.41636000  0.39823000  0.85343000  1.0
  H  H308  1  0.39852000  0.40800000  0.89023000  1.0
  H  H309  1  0.55124000  0.40100000  0.88026000  1.0
  H  H310  1  0.51758000  0.47866000  0.80052000  1.0
  H  H311  1  0.62094000  0.45582000  0.82007000  1.0
  H  H312  1  0.51298000  0.12214000  0.37067000  1.0
  H  H313  1  0.54148000  0.15150000  0.32294000  1.0
  H  H314  1  0.44954000  0.09802000  0.33134000  1.0
  H  H315  1  0.30804000  0.13877000  0.35498000  1.0
  H  H316  1  0.37192000  0.09921000  0.39014000  1.0
  H  H317  1  0.09184000  0.27681000  0.43573000  1.0
  H  H318  1  0.17796000  0.24690000  0.44641000  1.0
  H  H319  1  0.21878000  0.31252000  0.43220000  1.0
  H  H320  1  0.07230000  0.31981000  0.46180000  1.0
  H  H321  1  0.12176000  0.29214000  0.50959000  1.0
  H  H322  1  0.25130000  0.52584000  0.07960000  1.0
  H  H323  1  0.32012000  0.49759000  0.06984000  1.0
  H  H324  1  0.30062000  0.44134000  0.13417000  1.0
  H  H325  1  0.16550000  0.49108000  0.14879000  1.0
  H  H326  1  0.20420000  0.44203000  0.18261000  1.0
  H  H327  1  0.32024000  0.54570000  0.30935000  1.0
  H  H328  1  0.42396000  0.52893000  0.31746000  1.0
  H  H329  1  0.38266000  0.46663000  0.32446000  1.0
  H  H330  1  0.19840000  0.50122000  0.30352000  1.0
  H  H331  1  0.23452000  0.45262000  0.31558000  1.0
  H  H332  1  0.08896000  0.28350000  0.18161000  1.0
  H  H333  1  0.14362000  0.30694500  0.20197500  1.0
  H  H334  1  0.26254000  0.32163000  0.15859000  1.0
  H  H335  1  0.15844000  0.27216000  0.13116000  1.0
  H  H336  1  0.24372000  0.30517000  0.10191000  1.0
  H  H337  1  0.20646000  0.16816000  0.48434500  1.0
  H  H338  1  0.14974000  0.13841000  0.52652000  1.0
  H  H339  1  0.26366000  0.09247000  0.55448000  1.0
  H  H340  1  0.36596000  0.14752000  0.47786000  1.0
  H  H341  1  0.40070000  0.10159000  0.51955000  1.0
  N  N342  1  0.70182000  0.59520000  0.17570000  1.0
  N  N343  1  0.72546000  0.16384000  0.20359000  1.0
  N  N344  1  0.66036000  0.13461000  0.61859000  1.0
  N  N345  1  0.29170000  0.88622000  0.78223000  1.0
  N  N346  1  0.29036000  0.75445000  0.35108000  1.0
  N  N347  1  0.20328000  0.35573000  0.79618000  1.0
  N  N348  1  0.90900000  0.51956000  0.42477000  1.0
  N  N349  1  0.83268000  0.51457000  0.96340000  1.0
  N  N350  1  0.93772000  0.00182000  0.49840000  1.0
  N  N351  1  0.12936000  0.62086000  0.11453000  1.0
  N  N352  1  0.16120000  0.10199000  0.23671000  1.0
  N  N353  1  0.10350000  0.23074000  0.63585000  1.0
  N  N354  1  0.68112000  0.82404000  0.84173000  1.0
  N  N355  1  0.89014000  0.83552000  0.35179000  1.0
  N  N356  1  0.80756000  0.32620000  0.76132000  1.0
  N  N357  1  0.49948000  0.42274000  0.49387000  1.0
  N  N358  1  0.30772000  0.49610000  0.98744000  1.0
  N  N359  1  0.40206000  0.92786000  0.51330000  1.0
  N  N360  1  0.91548000  0.82715000  0.98184000  1.0
  N  N361  1  0.10212000  0.98375000  0.19338000  1.0
  N  N362  1  0.13770000  0.15797000  0.80801000  1.0
  N  N363  1  0.94800000  0.10885000  0.00710000  1.0
  N  N364  1  0.03534000  0.00404000  0.81888000  1.0
  N  N365  1  0.04584000  0.80853000  0.14174000  1.0
  N  N366  1  0.75302000  0.48697000  0.69479000  1.0
  N  N367  1  0.54320000  0.64971000  0.78032000  1.0
  N  N368  1  0.73258000  0.74856000  0.53545000  1.0
  N  N369  1  0.67580000  0.85466000  0.65657000  1.0
  N  N370  1  0.67882000  0.65217000  0.52492000  1.0
  N  N371  1  0.42408000  0.41979000  0.86168000  1.0
  N  N372  1  0.48956000  0.14285000  0.34264000  1.0
  N  N373  1  0.13996000  0.26194000  0.45684000  1.0
  N  N374  1  0.29452000  0.50207000  0.09213000  1.0
  N  N375  1  0.35932000  0.52047000  0.32320000  1.0
  N  N376  1  0.15010000  0.29047000  0.18762000  1.0
  N  N377  1  0.19750000  0.13898000  0.50732000  1.0
  O  O378  1  0.77912000  0.69201000  0.11551000  1.0
  O  O379  1  0.75244000  0.67483000  0.17958000  1.0
  O  O380  1  0.05836000  0.69675000  0.12410000  1.0
  O  O381  1  0.96926000  0.64847000  0.14218000  1.0
  O  O382  1  0.02876000  0.73177000  0.13634000  1.0
  O  O383  1  0.91806000  0.70643000  0.17717000  1.0
  O  O384  1  0.93268000  0.72491000  0.05549000  1.0
  O  O385  1  0.04414000  0.76589000  0.04817000  1.0
  O  O386  1  0.83028000  0.10205000  0.16944000  1.0
  O  O387  1  0.77074000  0.15323000  0.11446000  1.0
  O  O388  1  0.03620000  0.10097000  0.17840000  1.0
  O  O389  1  0.99444000  0.15972000  0.13006000  1.0
  O  O390  1  0.03426000  0.11455000  0.08456000  1.0
  O  O391  1  0.89506000  0.12620000  0.07237000  1.0
  O  O392  1  0.92784000  0.04165000  0.14885000  1.0
  O  O393  1  0.93244000  0.02232000  0.21433000  1.0
  O  O394  1  0.79450000  0.15684000  0.67687000  1.0
  O  O395  1  0.68492000  0.12519000  0.71987000  1.0
  O  O396  1  0.97858000  0.18339000  0.69279000  1.0
  O  O397  1  0.99144000  0.13455000  0.68190000  1.0
  O  O398  1  0.97868000  0.08225000  0.76990000  1.0
  O  O399  1  0.86508000  0.06565000  0.74857000  1.0
  O  O400  1  0.98994000  0.11378000  0.77493000  1.0
  O  O401  1  0.96308000  0.17203000  0.77348000  1.0
  O  O402  1  0.07228000  0.84062000  0.81789000  1.0
  O  O403  1  0.09022000  0.89914000  0.76095000  1.0
  O  O404  1  0.87368000  0.81962000  0.84077000  1.0
  O  O405  1  0.88448000  0.87381000  0.78180000  1.0
  O  O406  1  0.86854000  0.90832000  0.83782000  1.0
  O  O407  1  0.99648000  0.93044000  0.81117000  1.0
  O  O408  1  0.01100000  0.84735000  0.89354000  1.0
  O  O409  1  0.88122000  0.81788000  0.91501000  1.0
  O  O410  1  0.16640000  0.81207000  0.30104000  1.0
  O  O411  1  0.23840000  0.86952000  0.26235000  1.0
  O  O412  1  0.98016000  0.85159000  0.27974000  1.0
  O  O413  1  0.97320000  0.78946000  0.29894000  1.0
  O  O414  1  0.98718000  0.82787000  0.20687000  1.0
  O  O415  1  0.09086000  0.78192000  0.23431000  1.0
  O  O416  1  0.03476000  0.88299000  0.25135000  1.0
  O  O417  1  0.08426000  0.91551000  0.18801000  1.0
  O  O418  1  0.09842000  0.26712000  0.82575000  1.0
  O  O419  1  0.13876000  0.28855000  0.86785000  1.0
  O  O420  1  0.89670000  0.25580000  0.81954000  1.0
  O  O421  1  0.92068000  0.28533000  0.85460000  1.0
  O  O422  1  0.90886000  0.19668000  0.91984000  1.0
  O  O423  1  0.04036000  0.21270000  0.92852000  1.0
  O  O424  1  0.04434000  0.17614000  0.87045000  1.0
  O  O425  1  0.91604000  0.16717000  0.84814000  1.0
  O  O426  1  0.42704000  0.34685000  0.80240000  1.0
  O  O427  1  0.38850000  0.32366000  0.76143000  1.0
  O  O428  1  0.62922000  0.35554000  0.80909000  1.0
  O  O429  1  0.60378000  0.32998000  0.77186000  1.0
  O  O430  1  0.49130000  0.43479000  0.76922000  1.0
  O  O431  1  0.58764000  0.39374000  0.80839000  1.0
  O  O432  1  0.63606000  0.42180000  0.71967000  1.0
  O  O433  1  0.54192000  0.47094000  0.68176000  1.0
  O  O434  1  0.38936000  0.80265000  0.79055000  1.0
  O  O435  1  0.36144000  0.85832000  0.73209000  1.0
  O  O436  1  0.59130000  0.78315000  0.80703000  1.0
  O  O437  1  0.57204000  0.84156000  0.75322000  1.0
  O  O438  1  0.58936000  0.78425000  0.72032000  1.0
  O  O439  1  0.46134000  0.81118000  0.69865000  1.0
  O  O440  1  0.44832000  0.72839000  0.78141000  1.0
  O  O441  1  0.52410000  0.70639000  0.83844000  1.0
  O  O442  1  0.49326000  0.79267000  0.35656000  1.0
  O  O443  1  0.39548000  0.76283000  0.40614000  1.0
  O  O444  1  0.67880000  0.82758000  0.35712000  1.0
  O  O445  1  0.68776000  0.77130000  0.35862000  1.0
  O  O446  1  0.68698000  0.73166000  0.44783000  1.0
  O  O447  1  0.56250000  0.71250000  0.43766000  1.0
  O  O448  1  0.70708000  0.76842500  0.44306500  1.0
  O  O449  1  0.69118000  0.83270000  0.42795000  1.0
  O  O450  1  0.77240000  0.49030000  0.49860000  1.0
  O  O451  1  0.85712000  0.54286000  0.48543000  1.0
  O  O452  1  0.57982000  0.46578000  0.52931000  1.0
  O  O453  1  0.58168000  0.51830000  0.46902000  1.0
  O  O454  1  0.57276000  0.55682000  0.52235000  1.0
  O  O455  1  0.69364000  0.58096000  0.48908000  1.0
  O  O456  1  0.73136000  0.50276000  0.57231000  1.0
  O  O457  1  0.62960000  0.45663000  0.60810000  1.0
  O  O458  1  0.67380000  0.49080000  0.92148000  1.0
  O  O459  1  0.65040000  0.48510000  0.98138000  1.0
  O  O460  1  0.39024000  0.50689000  0.91173000  1.0
  O  O461  1  0.45688000  0.45015000  0.94965000  1.0
  O  O462  1  0.53112000  0.49395000  0.85857000  1.0
  O  O463  1  0.52322000  0.44304000  0.91730000  1.0
  O  O464  1  0.56080000  0.56913000  0.87605000  1.0
  O  O465  1  0.45402000  0.57664000  0.83300000  1.0
  O  O466  1  0.80666000  0.94145000  0.48195000  1.0
  O  O467  1  0.89512000  0.91933500  0.53516500  1.0
  O  O468  1  0.61072000  0.92223000  0.47152000  1.0
  O  O469  1  0.62218000  0.94360000  0.51433000  1.0
  O  O470  1  0.62632000  0.85252000  0.56885000  1.0
  O  O471  1  0.74904000  0.87206000  0.58202000  1.0
  O  O472  1  0.77754000  0.84787000  0.51548000  1.0
  O  O473  1  0.64968000  0.82109000  0.51291000  1.0
  O  O474  1  0.15540000  0.00401000  0.46929000  1.0
  O  O475  1  0.06358000  0.03670000  0.41736000  1.0
  O  O476  1  0.37662000  0.03373000  0.44874000  1.0
  O  O477  1  0.29250000  0.99534000  0.49191000  1.0
  O  O478  1  0.32336000  0.10522000  0.44581000  1.0
  O  O479  1  0.25634000  0.06473000  0.50081000  1.0
  O  O480  1  0.24094000  0.05820000  0.38956000  1.0
  O  O481  1  0.27866000  0.08149000  0.32552000  1.0
  O  O482  1  0.09754000  0.44981000  0.47412000  1.0
  O  O483  1  0.10462000  0.51541000  0.42893000  1.0
  O  O484  1  0.29342000  0.42179000  0.48944000  1.0
  O  O485  1  0.28462000  0.48454000  0.44165000  1.0
  O  O486  1  0.28352000  0.44040000  0.39326000  1.0
  O  O487  1  0.15766000  0.47114000  0.37753000  1.0
  O  O488  1  0.13720000  0.38345000  0.45068000  1.0
  O  O489  1  0.25172000  0.34800000  0.48763000  1.0
  O  O490  1  0.96384000  0.41830000  0.02797000  1.0
  O  O491  1  0.90778000  0.46406000  0.04112000  1.0
  O  O492  1  0.13024000  0.47262000  0.01628000  1.0
  O  O493  1  0.17000000  0.41768000  0.02021000  1.0
  O  O494  1  0.18532000  0.38567000  0.10777000  1.0
  O  O495  1  0.07870000  0.34973000  0.10622000  1.0
  O  O496  1  0.18212000  0.42399000  0.10037000  1.0
  O  O497  1  0.11268000  0.47980000  0.09000000  1.0
  O  O498  1  0.53512000  0.19455000  0.17960000  1.0
  O  O499  1  0.53200000  0.12717000  0.21302000  1.0
  O  O500  1  0.26022000  0.17937000  0.21191000  1.0
  O  O501  1  0.33664000  0.15529000  0.18242000  1.0
  O  O502  1  0.27358000  0.22778000  0.19392000  1.0
  O  O503  1  0.35514000  0.25033000  0.14055000  1.0
  O  O504  1  0.42452000  0.15046000  0.25931000  1.0
  O  O505  1  0.35184000  0.18604000  0.28147000  1.0
  O  O506  1  0.45368000  0.16205000  0.60866000  1.0
  O  O507  1  0.55142000  0.21141000  0.57776000  1.0
  O  O508  1  0.24916000  0.16083000  0.60698000  1.0
  O  O509  1  0.29360000  0.20838000  0.61611000  1.0
  O  O510  1  0.36937000  0.17570000  0.52732000  1.0
  O  O511  1  0.27616000  0.14914000  0.57468000  1.0
  O  O512  1  0.24826000  0.24094000  0.52620000  1.0
  O  O513  1  0.34460000  0.27439000  0.47664000  1.0
  O  O514  1  0.49066000  0.58309000  0.19628000  1.0
  O  O515  1  0.53644000  0.60245000  0.13400000  1.0
  O  O516  1  0.32496000  0.60872000  0.14059000  1.0
  O  O517  1  0.28508000  0.58418000  0.20166000  1.0
  O  O518  1  0.31408000  0.54555000  0.24009000  1.0
  O  O519  1  0.40288000  0.49933000  0.24823000  1.0
  O  O520  1  0.27564000  0.51893000  0.17590000  1.0
  O  O521  1  0.37146000  0.47478000  0.17625000  1.0
