# generated using pymatgen
data_InH22(C5O2)4
_symmetry_space_group_name_H-M   'P 1'
_cell_length_a   24.70780000
_cell_length_b   24.79424950
_cell_length_c   24.79350000
_cell_angle_alpha   120.00100000
_cell_angle_beta   90.00100000
_cell_angle_gamma   89.99800006
_symmetry_Int_Tables_number   1
_chemical_formula_structural   InH22(C5O2)4
_chemical_formula_sum   'In12 H264 C240 O96'
_cell_volume   13153.73651698
_cell_formula_units_Z   12
loop_
 _symmetry_equiv_pos_site_id
 _symmetry_equiv_pos_as_xyz
  1  'x, y, z'
loop_
 _atom_site_type_symbol
 _atom_site_label
 _atom_site_symmetry_multiplicity
 _atom_site_fract_x
 _atom_site_fract_y
 _atom_site_fract_z
 _atom_site_occupancy
  C  C0  1  0.96146000  0.89312000  0.21036000  1.0
  C  C1  1  0.91262000  0.98242000  0.40964000  1.0
  C  C2  1  0.83487000  0.82214000  0.26728000  1.0
  C  C3  1  0.90532000  0.04038000  0.30920000  1.0
  C  C4  1  0.91904000  0.33592000  0.12564000  1.0
  C  C5  1  0.87561000  0.48322000  0.08800000  1.0
  C  C6  1  0.76543000  0.42894000  0.17762000  1.0
  C  C7  1  0.89407000  0.31914000  0.98074000  1.0
  C  C8  1  0.99109000  0.78218000  0.62324000  1.0
  C  C9  1  0.03518000  0.59134000  0.49460000  1.0
  C  C10  1  0.87483000  0.67400000  0.49596000  1.0
  C  C11  1  0.98162000  0.62896000  0.64084000  1.0
  C  C12  1  0.48638000  0.26198000  0.19598000  1.0
  C  C13  1  0.44482000  0.42534000  0.37688000  1.0
  C  C14  1  0.58735000  0.41736000  0.27410000  1.0
  C  C15  1  0.48998000  0.27570000  0.34588000  1.0
  C  C16  1  0.55294000  0.77514000  0.63138000  1.0
  C  C17  1  0.52560000  0.80776000  0.47778000  1.0
  C  C18  1  0.67840000  0.73706000  0.49976000  1.0
  C  C19  1  0.55449000  0.92196000  0.64806000  1.0
  C  C20  1  0.53802000  0.71510000  0.09200000  1.0
  C  C21  1  0.56969000  0.52884000  0.07056000  1.0
  C  C22  1  0.67761000  0.67612000  0.15770000  1.0
  C  C23  1  0.55917000  0.56588000  0.95190000  1.0
  C  C24  1  0.99129000  0.17430000  0.78320000  1.0
  C  C25  1  0.02522000  0.07280000  0.60846000  1.0
  C  C26  1  0.15182000  0.17472000  0.75746000  1.0
  C  C27  1  0.10712000  0.97380000  0.68658000  1.0
  C  C28  1  0.99768000  0.58014000  0.81446000  1.0
  C  C29  1  0.97913000  0.57986000  0.98172000  1.0
  C  C30  1  0.13715000  0.55354000  0.88234000  1.0
  C  C31  1  0.01294000  0.73088000  0.99604000  1.0
  C  C32  1  0.99641000  0.21586000  0.33594000  1.0
  C  C33  1  0.11307000  0.37212000  0.40080000  1.0
  C  C34  1  0.15557000  0.18306000  0.35632000  1.0
  C  C35  1  0.04324000  0.29430000  0.25892000  1.0
  C  C36  1  0.47452000  0.53256000  0.75362000  1.0
  C  C37  1  0.37069000  0.51282000  0.59566000  1.0
  C  C38  1  0.31220000  0.52504000  0.76268000  1.0
  C  C39  1  0.46362000  0.63440000  0.69630000  1.0
  C  C40  1  0.46039000  0.09816000  0.38590000  1.0
  C  C41  1  0.42049000  0.93088000  0.39630000  1.0
  C  C42  1  0.30574000  0.04166000  0.35714000  1.0
  C  C43  1  0.45971000  0.92308000  0.23658000  1.0
  C  C44  1  0.48713000  0.13822000  0.80502000  1.0
  C  C45  1  0.48183000  0.31638000  0.96994000  1.0
  C  C46  1  0.34057000  0.24068000  0.84946000  1.0
  C  C47  1  0.46336000  0.17670000  0.97488000  1.0
  C  C48  1  0.02551000  0.79454000  0.05102000  1.0
  C  C49  1  0.04676000  0.77366000  0.14000000  1.0
  C  C50  1  0.95316000  0.77366000  0.10850000  1.0
  C  C51  1  0.05514000  0.90918000  0.18434000  1.0
  C  C52  1  0.00663000  0.80360000  0.11480000  1.0
  C  C53  1  0.00052000  0.87582000  0.15670000  1.0
  C  C54  1  0.97910000  0.89586000  0.11068000  1.0
  C  C55  1  0.00013000  0.84836000  0.04588000  1.0
  C  C56  1  0.02934000  0.27970000  0.19362000  1.0
  C  C57  1  0.04874000  0.36978000  0.17348000  1.0
  C  C58  1  0.97293000  0.37800000  0.24040000  1.0
  C  C59  1  0.99432000  0.26708000  0.06470000  1.0
  C  C60  1  0.00417000  0.33270000  0.18480000  1.0
  C  C61  1  0.96469000  0.29664000  0.12828000  1.0
  C  C62  1  0.94246000  0.24430000  0.13784000  1.0
  C  C63  1  0.98924000  0.22496000  0.16432000  1.0
  C  C64  1  0.00542000  0.84914000  0.66856000  1.0
  C  C65  1  0.99500000  0.90372000  0.60522000  1.0
  C  C66  1  0.07776000  0.84690000  0.59818000  1.0
  C  C67  1  0.01642000  0.99236000  0.74238000  1.0
  C  C68  1  0.03437000  0.88610000  0.64192000  1.0
  C  C69  1  0.05933000  0.94336000  0.70166000  1.0
  C  C70  1  0.07901000  0.91198000  0.73906000  1.0
  C  C71  1  0.04141000  0.85636000  0.72216000  1.0
  C  C72  1  0.45195000  0.15832000  0.02366000  1.0
  C  C73  1  0.37478000  0.21830000  0.09986000  1.0
  C  C74  1  0.45315000  0.27458000  0.09474000  1.0
  C  C75  1  0.43921000  0.16186000  0.15810000  1.0
  C  C76  1  0.43671000  0.21448000  0.08948000  1.0
  C  C77  1  0.46978000  0.20296000  0.13718000  1.0
  C  C78  1  0.52006000  0.16754000  0.09978000  1.0
  C  C79  1  0.50029000  0.12506000  0.03370000  1.0
  C  C80  1  0.52739000  0.76802000  0.68276000  1.0
  C  C81  1  0.58793000  0.69192000  0.69612000  1.0
  C  C82  1  0.52564000  0.65414000  0.60780000  1.0
  C  C83  1  0.49510000  0.73404000  0.78482000  1.0
  C  C84  1  0.53198000  0.70192000  0.67460000  1.0
  C  C85  1  0.48301000  0.69942000  0.71384000  1.0
  C  C86  1  0.43822000  0.73510000  0.70138000  1.0
  C  C87  1  0.46658000  0.78366000  0.69040000  1.0
  C  C88  1  0.46191000  0.86902000  0.17060000  1.0
  C  C89  1  0.42655000  0.77632000  0.17828000  1.0
  C  C90  1  0.51853500  0.81538000  0.21310000  1.0
  C  C91  1  0.45737000  0.73682000  0.04738000  1.0
  C  C92  1  0.47664000  0.80594000  0.16592000  1.0
  C  C93  1  0.50111000  0.76698000  0.09890000  1.0
  C  C94  1  0.53248000  0.81608000  0.09046000  1.0
  C  C95  1  0.50292000  0.87810000  0.12908000  1.0
  C  C96  1  0.89052000  0.27412000  0.91142000  1.0
  C  C97  1  0.91495000  0.16500000  0.89094000  1.0
  C  C98  1  0.98650000  0.24208000  0.91498000  1.0
  C  C99  1  0.89234000  0.16196000  0.77202000  1.0
  C  C100  1  0.93323000  0.22058000  0.88352000  1.0
  C  C101  1  0.93834000  0.20498000  0.81424000  1.0
  C  C102  1  0.93283000  0.26910000  0.81890000  1.0
  C  C103  1  0.89608000  0.30834000  0.87436000  1.0
  C  C104  1  0.97223000  0.56914000  0.75492000  1.0
  C  C105  1  0.05558000  0.54324000  0.68600000  1.0
  C  C106  1  0.03031000  0.65200000  0.75744000  1.0
  C  C107  1  0.95228000  0.52374000  0.61454000  1.0
  C  C108  1  0.00766000  0.58864000  0.71636000  1.0
  C  C109  1  0.96555000  0.58988000  0.66968000  1.0
  C  C110  1  0.91407000  0.61692000  0.71022000  1.0
  C  C111  1  0.91841000  0.60316000  0.76392000  1.0
  C  C112  1  0.88603000  0.09708000  0.30702000  1.0
  C  C113  1  0.90148000  0.11656000  0.21680000  1.0
  C  C114  1  0.97795000  0.08698000  0.25684000  1.0
  C  C115  1  0.90251000  0.24190000  0.32424000  1.0
  C  C116  1  0.92687000  0.12362000  0.27708000  1.0
  C  C117  1  0.93817000  0.19354000  0.33010000  1.0
  C  C118  1  0.92244000  0.19428000  0.39042000  1.0
  C  C119  1  0.87510000  0.15006000  0.37336000  1.0
  C  C120  1  0.52309000  0.52426000  0.78550000  1.0
  C  C121  1  0.48665000  0.45800000  0.82968000  1.0
  C  C122  1  0.46723000  0.56994000  0.88212000  1.0
  C  C123  1  0.60446000  0.48464000  0.85704000  1.0
  C  C124  1  0.50926000  0.52238000  0.84556000  1.0
  C  C125  1  0.56431000  0.54016000  0.88208000  1.0
  C  C126  1  0.58765000  0.59010000  0.86866000  1.0
  C  C127  1  0.56490000  0.57668000  0.80556000  1.0
  C  C128  1  0.48955000  0.15786000  0.40268000  1.0
  C  C129  1  0.41253000  0.23678000  0.43386000  1.0
  C  C130  1  0.43212000  0.16458000  0.32362000  1.0
  C  C131  1  0.52010000  0.29742000  0.44988000  1.0
  C  C132  1  0.45789000  0.20162000  0.38602000  1.0
  C  C133  1  0.50342000  0.24466000  0.38390000  1.0
  C  C134  1  0.55168000  0.19952000  0.35448000  1.0
  C  C135  1  0.54440000  0.14718000  0.36984000  1.0
  C  C136  1  0.56285000  0.99052000  0.69282000  1.0
  C  C137  1  0.53083000  0.00694000  0.79796000  1.0
  C  C138  1  0.46524000  0.00858000  0.72428000  1.0
  C  C139  1  0.58428000  0.12068000  0.80946000  1.0
  C  C140  1  0.52194000  0.02456000  0.74700000  1.0
  C  C141  1  0.53286000  0.09456000  0.76820000  1.0
  C  C142  1  0.54248000  0.09370000  0.70620000  1.0
  C  C143  1  0.56450000  0.02882000  0.65978000  1.0
  C  C144  1  0.72415000  0.69834000  0.20320000  1.0
  C  C145  1  0.69904000  0.81232000  0.27638000  1.0
  C  C146  1  0.74599000  0.78070000  0.17770000  1.0
  C  C147  1  0.79451000  0.77374000  0.32300000  1.0
  C  C148  1  0.74109000  0.76708000  0.22950000  1.0
  C  C149  1  0.79815000  0.76926000  0.25840000  1.0
  C  C150  1  0.82327000  0.70556000  0.21168000  1.0
  C  C151  1  0.77634000  0.66082000  0.17720000  1.0
  C  C152  1  0.71584000  0.45922000  0.21748000  1.0
  C  C153  1  0.72177000  0.42834000  0.30134000  1.0
  C  C154  1  0.68209000  0.35712000  0.19918000  1.0
  C  C155  1  0.63207000  0.51934000  0.32768000  1.0
  C  C156  1  0.68806000  0.42402000  0.24684000  1.0
  C  C157  1  0.63088000  0.45612000  0.26600000  1.0
  C  C158  1  0.61698000  0.46846000  0.21230000  1.0
  C  C159  1  0.67060000  0.47190000  0.18296000  1.0
  C  C160  1  0.82286000  0.67080000  0.46212000  1.0
  C  C161  1  0.80403000  0.78192000  0.48508000  1.0
  C  C162  1  0.78150000  0.75172000  0.56250000  1.0
  C  C163  1  0.72224000  0.69112000  0.39742000  1.0
  C  C164  1  0.78423000  0.72814000  0.49444000  1.0
  C  C165  1  0.72797000  0.70012000  0.46370000  1.0
  C  C166  1  0.72896000  0.63562000  0.45886000  1.0
  C  C167  1  0.78809000  0.61442000  0.44984000  1.0
  C  C168  1  0.19545000  0.22320000  0.78994000  1.0
  C  C169  1  0.27451000  0.18150000  0.71304000  1.0
  C  C170  1  0.25892000  0.14412000  0.78634000  1.0
  C  C171  1  0.29475000  0.31078000  0.81838000  1.0
  C  C172  1  0.25470000  0.19996000  0.77910000  1.0
  C  C173  1  0.28581000  0.25698000  0.83276000  1.0
  C  C174  1  0.24608000  0.27988000  0.88826000  1.0
  C  C175  1  0.18890000  0.26108000  0.86092000  1.0
  C  C176  1  0.19382000  0.52778000  0.86382000  1.0
  C  C177  1  0.25495000  0.62338000  0.90068000  1.0
  C  C178  1  0.20572000  0.58078000  0.80154000  1.0
  C  C179  1  0.31871000  0.50562000  0.85048000  1.0
  C  C180  1  0.23346000  0.56332000  0.84384000  1.0
  C  C181  1  0.27804000  0.51324000  0.80688000  1.0
  C  C182  1  0.24514000  0.45236000  0.77110000  1.0
  C  C183  1  0.19435000  0.46004000  0.81002000  1.0
  C  C184  1  0.17617000  0.12592000  0.35732000  1.0
  C  C185  1  0.23779000  0.17146000  0.45314000  1.0
  C  C186  1  0.27232000  0.15178000  0.35218000  1.0
  C  C187  1  0.21785000  0.03446000  0.39990000  1.0
  C  C188  1  0.23421000  0.12810000  0.38190000  1.0
  C  C189  1  0.24594000  0.05746000  0.35892000  1.0
  C  C190  1  0.21993000  0.02380000  0.29332000  1.0
  C  C191  1  0.17383000  0.06560000  0.29390000  1.0
  C  C192  1  0.98280000  0.07624000  0.56660000  1.0
  C  C193  1  0.91104000  0.99506000  0.55160000  1.0
  C  C194  1  0.99277000  0.96514000  0.48664000  1.0
  C  C195  1  0.87437000  0.07586000  0.50254000  1.0
  C  C196  1  0.95288000  0.01608000  0.51958000  1.0
  C  C197  1  0.92646000  0.03586000  0.47442000  1.0
  C  C198  1  0.97059000  0.07738000  0.46928000  1.0
  C  C199  1  0.00367000  0.10580000  0.52926000  1.0
  C  C200  1  0.88890000  0.53698000  0.07842000  1.0
  C  C201  1  0.86959000  0.49028000  0.96204000  1.0
  C  C202  1  0.95776000  0.47504000  0.99812000  1.0
  C  C203  1  0.88917000  0.62522000  0.02180000  1.0
  C  C204  1  0.91261000  0.52014000  0.01418000  1.0
  C  C205  1  0.93487000  0.58464000  0.02654000  1.0
  C  C206  1  0.95572000  0.61646000  0.09480000  1.0
  C  C207  1  0.92956000  0.58268000  0.12554000  1.0
  C  C208  1  0.08255000  0.54622000  0.47492000  1.0
  C  C209  1  0.07298000  0.47460000  0.35766000  1.0
  C  C210  1  0.02152000  0.45418000  0.42984000  1.0
  C  C211  1  0.17703000  0.45180000  0.40404000  1.0
  C  C212  1  0.07404000  0.47836000  0.42156000  1.0
  C  C213  1  0.12287000  0.44220000  0.43020000  1.0
  C  C214  1  0.12774000  0.47368000  0.50178000  1.0
  C  C215  1  0.10355000  0.53922000  0.52922000  1.0
  C  C216  1  0.39884000  0.45436000  0.42336000  1.0
  C  C217  1  0.42660000  0.56428000  0.50668000  1.0
  C  C218  1  0.46048000  0.47394000  0.51122000  1.0
  C  C219  1  0.31362000  0.53598000  0.52626000  1.0
  C  C220  1  0.41284000  0.49800000  0.49322000  1.0
  C  C221  1  0.36057000  0.49502000  0.52800000  1.0
  C  C222  1  0.34382000  0.42612000  0.48900000  1.0
  C  C223  1  0.36110000  0.40430000  0.42190000  1.0
  C  C224  1  0.42738000  0.87736000  0.40868000  1.0
  C  C225  1  0.44169000  0.93070000  0.52642000  1.0
  C  C226  1  0.51777000  0.91516000  0.45648000  1.0
  C  C227  1  0.42670000  0.79264000  0.46730000  1.0
  C  C228  1  0.46636000  0.88700000  0.46170000  1.0
  C  C229  1  0.47590000  0.81834000  0.44760000  1.0
  C  C230  1  0.48037000  0.78136000  0.37592000  1.0
  C  C231  1  0.44718000  0.81718000  0.35150000  1.0
  C  C232  1  0.55615000  0.46870000  0.06860000  1.0
  C  C233  1  0.59493000  0.38830000  0.96256000  1.0
  C  C234  1  0.50350000  0.43044000  0.97116000  1.0
  C  C235  1  0.56186000  0.32818000  0.03420000  1.0
  C  C236  1  0.54370000  0.41230000  0.00376000  1.0
  C  C237  1  0.51787000  0.36484000  0.02080000  1.0
  C  C238  1  0.48567000  0.40678000  0.08150000  1.0
  C  C239  1  0.50773000  0.47310000  0.10898000  1.0
  H  H240  1  0.93415000  0.89470000  0.10858000  1.0
  H  H241  1  0.99170000  0.94392000  0.12358000  1.0
  H  H242  1  0.03122000  0.87024000  0.03052000  1.0
  H  H243  1  0.96627000  0.83266000  0.01182000  1.0
  H  H244  1  0.07023000  0.80072000  0.05250000  1.0
  H  H245  1  0.03520000  0.78470000  0.18774000  1.0
  H  H246  1  0.08881000  0.78998000  0.14126000  1.0
  H  H247  1  0.04706000  0.72220000  0.10962000  1.0
  H  H248  1  0.04941000  0.96052000  0.20998000  1.0
  H  H249  1  0.08563000  0.89778000  0.14728000  1.0
  H  H250  1  0.07197000  0.89640000  0.21796000  1.0
  H  H251  1  0.90902000  0.26206000  0.17262000  1.0
  H  H252  1  0.92664500  0.20404000  0.09426000  1.0
  H  H253  1  0.00933000  0.18296000  0.12632000  1.0
  H  H254  1  0.97360000  0.21262000  0.19850000  1.0
  H  H255  1  0.06726000  0.26290000  0.16576000  1.0
  H  H256  1  0.03067000  0.40376000  0.16188000  1.0
  H  H257  1  0.07632000  0.33878000  0.13504000  1.0
  H  H258  1  0.07436000  0.39580000  0.21546000  1.0
  H  H259  1  0.96644000  0.23640000  0.02664000  1.0
  H  H260  1  0.02940000  0.23840000  0.06318000  1.0
  H  H261  1  0.00904000  0.30334000  0.05450000  1.0
  H  H262  1  0.12092000  0.89370000  0.72614000  1.0
  H  H263  1  0.07922000  0.94460000  0.79024000  1.0
  H  H264  1  0.01621000  0.86506000  0.76290000  1.0
  H  H265  1  0.06611000  0.81382000  0.70808000  1.0
  H  H266  1  0.96622000  0.87212000  0.68962000  1.0
  H  H267  1  0.01569000  0.93390000  0.59048000  1.0
  H  H268  1  0.95861000  0.92766000  0.63310000  1.0
  H  H269  1  0.98043000  0.86166000  0.56250000  1.0
  H  H270  1  0.03619000  0.03068000  0.78420000  1.0
  H  H271  1  0.98506000  0.97288000  0.75984000  1.0
  H  H272  1  0.99495000  0.01118000  0.71648000  1.0
  H  H273  1  0.55019000  0.20050000  0.09892000  1.0
  H  H274  1  0.54034000  0.14048000  0.11874000  1.0
  H  H275  1  0.48636000  0.08038000  0.02928000  1.0
  H  H276  1  0.53387000  0.11348000  0.99986000  1.0
  H  H277  1  0.41768000  0.12470000  0.00558000  1.0
  H  H278  1  0.36448000  0.25538000  0.14794000  1.0
  H  H279  1  0.35787000  0.17356000  0.09226000  1.0
  H  H280  1  0.35402000  0.22902000  0.06652000  1.0
  H  H281  1  0.46606000  0.14942000  0.18622000  1.0
  H  H282  1  0.42461000  0.11790000  0.11758000  1.0
  H  H283  1  0.40388000  0.18702000  0.18778000  1.0
  H  H284  1  0.41532000  0.70284000  0.65850000  1.0
  H  H285  1  0.40845000  0.75746000  0.74010000  1.0
  H  H286  1  0.46016000  0.83102000  0.73098000  1.0
  H  H287  1  0.44871000  0.78278000  0.64880000  1.0
  H  H288  1  0.54786000  0.80192000  0.72688000  1.0
  H  H289  1  0.58923000  0.64692000  0.69566000  1.0
  H  H290  1  0.59790000  0.72978000  0.74388000  1.0
  H  H291  1  0.62036000  0.69158000  0.66488000  1.0
  H  H292  1  0.45821000  0.73682000  0.81176000  1.0
  H  H293  1  0.50927000  0.78240000  0.80198000  1.0
  H  H294  1  0.52634000  0.70908000  0.79614000  1.0
  H  H295  1  0.57436000  0.82144000  0.10904000  1.0
  H  H296  1  0.53578000  0.80382000  0.04084000  1.0
  H  H297  1  0.48121000  0.89080000  0.09772000  1.0
  H  H298  1  0.53284000  0.91548000  0.15630000  1.0
  H  H299  1  0.42107000  0.86476000  0.14978000  1.0
  H  H300  1  0.43621000  0.72952000  0.17128000  1.0
  H  H301  1  0.39223000  0.77166000  0.14738000  1.0
  H  H302  1  0.41217000  0.80602000  0.22692000  1.0
  H  H303  1  0.47643000  0.71426000  0.00050000  1.0
  H  H304  1  0.42804000  0.77188000  0.04984000  1.0
  H  H305  1  0.43477000  0.70002000  0.05098000  1.0
  H  H306  1  0.97292000  0.29268000  0.82844000  1.0
  H  H307  1  0.91665000  0.26612000  0.77562000  1.0
  H  H308  1  0.85568000  0.31376000  0.85790000  1.0
  H  H309  1  0.91416000  0.35540000  0.90238000  1.0
  H  H310  1  0.84927000  0.25320000  0.90176000  1.0
  H  H311  1  0.94371000  0.12548000  0.86750000  1.0
  H  H312  1  0.87398000  0.14838000  0.87132000  1.0
  H  H313  1  0.91259000  0.17878000  0.94088000  1.0
  H  H314  1  0.89459000  0.15682000  0.72488000  1.0
  H  H315  1  0.85176000  0.18090000  0.79150000  1.0
  H  H316  1  0.89580000  0.11442000  0.76558000  1.0
  H  H317  1  0.91211000  0.66832000  0.73032000  1.0
  H  H318  1  0.87606000  0.59714000  0.68344000  1.0
  H  H319  1  0.88419000  0.57350000  0.76272000  1.0
  H  H320  1  0.91731000  0.64766000  0.80914000  1.0
  H  H321  1  0.96402000  0.51828000  0.72706000  1.0
  H  H322  1  0.08010000  0.55634000  0.65696000  1.0
  H  H323  1  0.04183000  0.49436000  0.65694000  1.0
  H  H324  1  0.08272000  0.54454000  0.72240000  1.0
  H  H325  1  0.91894000  0.52578000  0.58552000  1.0
  H  H326  1  0.93905000  0.49132000  0.63050000  1.0
  H  H327  1  0.98779000  0.50310000  0.58342000  1.0
  H  H328  1  0.95621000  0.17608000  0.40654000  1.0
  H  H329  1  0.91171000  0.24144000  0.42916000  1.0
  H  H330  1  0.83721000  0.17468000  0.37426000  1.0
  H  H331  1  0.87032000  0.13424000  0.40776000  1.0
  H  H332  1  0.84651000  0.08468000  0.28204000  1.0
  H  H333  1  0.92880000  0.13454000  0.19416000  1.0
  H  H334  1  0.86186000  0.14058000  0.22562000  1.0
  H  H335  1  0.89388000  0.06658000  0.18276000  1.0
  H  H336  1  0.85878000  0.23094000  0.32256000  1.0
  H  H337  1  0.91287000  0.24390000  0.28178000  1.0
  H  H338  1  0.90880000  0.28940000  0.36468000  1.0
  H  H339  1  0.57399000  0.63738000  0.90482000  1.0
  H  H340  1  0.63266000  0.59070000  0.86842000  1.0
  H  H341  1  0.59783000  0.56176000  0.77044000  1.0
  H  H342  1  0.54654000  0.61986000  0.81052000  1.0
  H  H343  1  0.54292000  0.47976000  0.75144000  1.0
  H  H344  1  0.48053000  0.45524000  0.87254000  1.0
  H  H345  1  0.51403000  0.41962000  0.79808000  1.0
  H  H346  1  0.44707000  0.44944000  0.80544000  1.0
  H  H347  1  0.64449000  0.50012000  0.88024000  1.0
  H  H348  1  0.61124000  0.46340000  0.80620000  1.0
  H  H349  1  0.58946000  0.44802000  0.86656000  1.0
  H  H350  1  0.55131000  0.17848000  0.30292000  1.0
  H  H351  1  0.59155000  0.22282000  0.37130000  1.0
  H  H352  1  0.57743000  0.14858000  0.40092000  1.0
  H  H353  1  0.54606000  0.10132000  0.32604000  1.0
  H  H354  1  0.49710000  0.18228000  0.45376000  1.0
  H  H355  1  0.39342000  0.27206000  0.42492000  1.0
  H  H356  1  0.42810000  0.26068000  0.48232000  1.0
  H  H357  1  0.38062000  0.20384000  0.43102000  1.0
  H  H358  1  0.55614000  0.32290000  0.44738000  1.0
  H  H359  1  0.53059000  0.27912000  0.48122000  1.0
  H  H360  1  0.48703000  0.33208000  0.47168000  1.0
  H  H361  1  0.50366000  0.10066000  0.68768000  1.0
  H  H362  1  0.57085000  0.13072000  0.71110000  1.0
  H  H363  1  0.60666000  0.03214000  0.64606000  1.0
  H  H364  1  0.53895000  0.00750000  0.61716000  1.0
  H  H365  1  0.60397000  0.99408000  0.71264000  1.0
  H  H366  1  0.50536000  0.03600000  0.83944000  1.0
  H  H367  1  0.57376000  0.01270000  0.81300000  1.0
  H  H368  1  0.52012000  0.95728000  0.78004000  1.0
  H  H369  1  0.59259000  0.16908000  0.82004000  1.0
  H  H370  1  0.62090000  0.09276000  0.78646000  1.0
  H  H371  1  0.57892000  0.12248000  0.85480000  1.0
  H  H372  1  0.84903000  0.70952000  0.17698000  1.0
  H  H373  1  0.84900000  0.68680000  0.23528000  1.0
  H  H374  1  0.77700000  0.62034000  0.18490000  1.0
  H  H375  1  0.78025000  0.64330000  0.12646000  1.0
  H  H376  1  0.71065000  0.69222000  0.24264000  1.0
  H  H377  1  0.71452000  0.86088000  0.29992000  1.0
  H  H378  1  0.68894000  0.79998000  0.31252000  1.0
  H  H379  1  0.66063000  0.81074000  0.25230000  1.0
  H  H380  1  0.83545000  0.77092000  0.34002000  1.0
  H  H381  1  0.77054000  0.73502000  0.32068000  1.0
  H  H382  1  0.77644000  0.81864000  0.35844000  1.0
  H  H383  1  0.59258000  0.42954000  0.17616000  1.0
  H  H384  1  0.59327000  0.51200000  0.22828000  1.0
  H  H385  1  0.67591000  0.51860000  0.18768000  1.0
  H  H386  1  0.67035000  0.43648000  0.13258000  1.0
  H  H387  1  0.72971000  0.50518000  0.25600000  1.0
  H  H388  1  0.69935000  0.40792000  0.32566000  1.0
  H  H389  1  0.73217000  0.47728000  0.33580000  1.0
  H  H390  1  0.76058000  0.40270000  0.28398000  1.0
  H  H391  1  0.59165000  0.54204000  0.33760000  1.0
  H  H392  1  0.66121000  0.55198000  0.32520000  1.0
  H  H393  1  0.64245000  0.51306000  0.36776000  1.0
  H  H394  1  0.71393000  0.63922000  0.50288000  1.0
  H  H395  1  0.70338000  0.60094000  0.42068000  1.0
  H  H396  1  0.79463000  0.57572000  0.40144000  1.0
  H  H397  1  0.79789000  0.59696000  0.48222000  1.0
  H  H398  1  0.83500000  0.66424000  0.41600000  1.0
  H  H399  1  0.77378000  0.82012000  0.50286000  1.0
  H  H400  1  0.81164000  0.76588000  0.43528000  1.0
  H  H401  1  0.84281000  0.80116000  0.51018000  1.0
  H  H402  1  0.68448000  0.66532000  0.37480000  1.0
  H  H403  1  0.75645000  0.66444000  0.36662000  1.0
  H  H404  1  0.71938000  0.73690000  0.39974000  1.0
  H  H405  1  0.25466000  0.25710000  0.91628000  1.0
  H  H406  1  0.24858000  0.33102000  0.92058000  1.0
  H  H407  1  0.16367000  0.30302000  0.87426000  1.0
  H  H408  1  0.16939000  0.23326000  0.87946000  1.0
  H  H409  1  0.19091000  0.25616000  0.77210000  1.0
  H  H410  1  0.31864000  0.17156000  0.70868000  1.0
  H  H411  1  0.26668000  0.21884000  0.70176000  1.0
  H  H412  1  0.25302000  0.13920000  0.67744000  1.0
  H  H413  1  0.31283000  0.35200000  0.85928000  1.0
  H  H414  1  0.25653000  0.32674000  0.80752000  1.0
  H  H415  1  0.32307000  0.29654000  0.77876000  1.0
  H  H416  1  0.23223000  0.44538000  0.72502000  1.0
  H  H417  1  0.26849000  0.41036000  0.76230000  1.0
  H  H418  1  0.19554000  0.42740000  0.82848000  1.0
  H  H419  1  0.15783000  0.44932000  0.78008000  1.0
  H  H420  1  0.21054000  0.52728000  0.90520000  1.0
  H  H421  1  0.28751000  0.64470000  0.88662000  1.0
  H  H422  1  0.27122000  0.61414000  0.93700000  1.0
  H  H423  1  0.22202000  0.65822000  0.92268000  1.0
  H  H424  1  0.34661000  0.46600000  0.82298000  1.0
  H  H425  1  0.29813000  0.49608000  0.88458000  1.0
  H  H426  1  0.34415000  0.54790000  0.87642000  1.0
  H  H427  1  0.24975000  0.01826000  0.25728000  1.0
  H  H428  1  0.20467000  0.97654000  0.28004000  1.0
  H  H429  1  0.13404000  0.04228000  0.28778000  1.0
  H  H430  1  0.17971000  0.07470000  0.25470000  1.0
  H  H431  1  0.14773000  0.11996000  0.38876000  1.0
  H  H432  1  0.27825000  0.16794000  0.47062000  1.0
  H  H433  1  0.20647000  0.16008000  0.47796000  1.0
  H  H434  1  0.23125000  0.22072000  0.46564000  1.0
  H  H435  1  0.22476000  0.98370000  0.38002000  1.0
  H  H436  1  0.17344000  0.04168000  0.40276000  1.0
  H  H437  1  0.23451000  0.05808000  0.44794000  1.0
  H  H438  1  0.99869000  0.04924000  0.43002000  1.0
  H  H439  1  0.95339000  0.11446000  0.46166000  1.0
  H  H440  1  0.99836000  0.15720000  0.55614000  1.0
  H  H441  1  0.04731000  0.09534000  0.51758000  1.0
  H  H442  1  0.95222000  0.10892000  0.59980000  1.0
  H  H443  1  0.88626000  0.95588000  0.51626000  1.0
  H  H444  1  0.88362000  0.03356000  0.58286000  1.0
  H  H445  1  0.93131000  0.97950000  0.58110000  1.0
  H  H446  1  0.85941000  0.09398000  0.47250000  1.0
  H  H447  1  0.88132000  0.11686000  0.54926000  1.0
  H  H448  1  0.84110000  0.04760000  0.50592000  1.0
  H  H449  1  0.00037000  0.61244000  0.09706000  1.0
  H  H450  1  0.94572000  0.66688000  0.12156000  1.0
  H  H451  1  0.90953000  0.61562000  0.16986000  1.0
  H  H452  1  0.96156000  0.55746000  0.13576000  1.0
  H  H453  1  0.85004000  0.56198000  0.08484000  1.0
  H  H454  1  0.88568000  0.48464000  0.91768000  1.0
  H  H455  1  0.83202000  0.51852000  0.97442000  1.0
  H  H456  1  0.85756000  0.44366000  0.95374000  1.0
  H  H457  1  0.90486000  0.67122000  0.03284000  1.0
  H  H458  1  0.85544000  0.63344000  0.05446000  1.0
  H  H459  1  0.87255000  0.60396000  0.97388000  1.0
  H  H460  1  0.10443000  0.44778000  0.52000000  1.0
  H  H461  1  0.17029000  0.47626000  0.51760000  1.0
  H  H462  1  0.13416000  0.57556000  0.55674000  1.0
  H  H463  1  0.06959000  0.54324000  0.56010000  1.0
  H  H464  1  0.11576000  0.56794000  0.46202000  1.0
  H  H465  1  0.07406000  0.42524000  0.32008000  1.0
  H  H466  1  0.10801000  0.49906000  0.35154000  1.0
  H  H467  1  0.03572000  0.49660000  0.35226000  1.0
  H  H468  1  0.21094000  0.42924000  0.41482000  1.0
  H  H469  1  0.18745000  0.50178000  0.42466000  1.0
  H  H470  1  0.17546000  0.43060000  0.35264000  1.0
  H  H471  1  0.36538000  0.39724000  0.50502000  1.0
  H  H472  1  0.29968000  0.41888000  0.49166000  1.0
  H  H473  1  0.32498000  0.39824000  0.39262000  1.0
  H  H474  1  0.38145000  0.35858000  0.40276000  1.0
  H  H475  1  0.37421000  0.48068000  0.40664000  1.0
  H  H476  1  0.39583000  0.58216000  0.48692000  1.0
  H  H477  1  0.46617000  0.56488000  0.48564000  1.0
  H  H478  1  0.42849000  0.59672000  0.55766000  1.0
  H  H479  1  0.27623000  0.52862000  0.54668000  1.0
  H  H480  1  0.30376000  0.52456000  0.47804000  1.0
  H  H481  1  0.32370000  0.58628000  0.55380000  1.0
  H  H482  1  0.52326000  0.77934000  0.36128000  1.0
  H  H483  1  0.46579000  0.73256000  0.35534000  1.0
  H  H484  1  0.41218000  0.78890000  0.32350000  1.0
  H  H485  1  0.47332000  0.82752000  0.32140000  1.0
  H  H486  1  0.38611000  0.86808000  0.41996000  1.0
  H  H487  1  0.46698000  0.93102000  0.56350000  1.0
  H  H488  1  0.40010000  0.91624000  0.53054000  1.0
  H  H489  1  0.43894000  0.97914000  0.53504000  1.0
  H  H490  1  0.43193000  0.74230000  0.45112000  1.0
  H  H491  1  0.38787000  0.79690000  0.44744000  1.0
  H  H492  1  0.42271000  0.81704000  0.51880000  1.0
  H  H493  1  0.44177000  0.40752000  0.07196000  1.0
  H  H494  1  0.48947000  0.39118000  0.11628000  1.0
  H  H495  1  0.51977000  0.49252000  0.15836000  1.0
  H  H496  1  0.47563000  0.50342000  0.10678000  1.0
  H  H497  1  0.59241000  0.45758000  0.08754000  1.0
  H  H498  1  0.58651000  0.34374000  0.91916000  1.0
  H  H499  1  0.62900000  0.38092000  0.98734000  1.0
  H  H500  1  0.60900000  0.42240000  0.94902000  1.0
  H  H501  1  0.54358000  0.30028000  0.05304000  1.0
  H  H502  1  0.59205000  0.35928000  0.06870000  1.0
  H  H503  1  0.58387000  0.29522000  0.99106000  1.0
  In  In504  1  0.89534000  0.91414000  0.29472000  1.0
  In  In505  1  0.84889000  0.39838000  0.10894000  1.0
  In  In506  1  0.96162000  0.67276000  0.54924000  1.0
  In  In507  1  0.51293000  0.35920000  0.29396000  1.0
  In  In508  1  0.59126000  0.79518000  0.54914000  1.0
  In  In509  1  0.59897000  0.63122000  0.08350000  1.0
  In  In510  1  0.06768000  0.11194000  0.71286000  1.0
  In  In511  1  0.04241000  0.59504000  0.91044000  1.0
  In  In512  1  0.09097000  0.25746000  0.34626000  1.0
  In  In513  1  0.38923000  0.54396000  0.70682000  1.0
  In  In514  1  0.40101000  0.00620000  0.35766000  1.0
  In  In515  1  0.43038000  0.22314000  0.88808000  1.0
  O  O516  1  0.94778000  0.94412000  0.36992000  1.0
  O  O517  1  0.86739000  0.97914000  0.38150000  1.0
  O  O518  1  0.88569000  0.82546000  0.28150000  1.0
  O  O519  1  0.81911000  0.87340000  0.27034000  1.0
  O  O520  1  0.87300000  0.99178000  0.29068000  1.0
  O  O521  1  0.95293000  0.04116000  0.33328000  1.0
  O  O522  1  0.97303000  0.89006000  0.25996000  1.0
  O  O523  1  0.91071000  0.90660000  0.20972000  1.0
  O  O524  1  0.89432000  0.47682000  0.13334000  1.0
  O  O525  1  0.83963000  0.44102000  0.05602000  1.0
  O  O526  1  0.81433000  0.44676000  0.19696000  1.0
  O  O527  1  0.76538000  0.39178000  0.11782000  1.0
  O  O528  1  0.85017000  0.33210000  0.01568000  1.0
  O  O529  1  0.93862000  0.35160000  0.00452000  1.0
  O  O530  1  0.92431000  0.39392000  0.14128000  1.0
  O  O531  1  0.87178000  0.31446000  0.10110000  1.0
  O  O532  1  0.04124000  0.65090000  0.51860000  1.0
  O  O533  1  0.98541000  0.57912000  0.50132000  1.0
  O  O534  1  0.92294000  0.66944000  0.47304000  1.0
  O  O535  1  0.87758000  0.67550000  0.54880000  1.0
  O  O536  1  0.94543000  0.63814000  0.60704000  1.0
  O  O537  1  0.03216000  0.64632000  0.64216000  1.0
  O  O538  1  0.99276000  0.75608000  0.56298000  1.0
  O  O539  1  0.97115000  0.74450000  0.64008000  1.0
  O  O540  1  0.43854000  0.40362000  0.31762000  1.0
  O  O541  1  0.49200000  0.40972000  0.38784000  1.0
  O  O542  1  0.53720000  0.41524000  0.25804000  1.0
  O  O543  1  0.59337000  0.38812000  0.30470000  1.0
  O  O544  1  0.52756000  0.30850000  0.33718000  1.0
  O  O545  1  0.44036000  0.27462000  0.32602000  1.0
  O  O546  1  0.45722000  0.31206000  0.22360000  1.0
  O  O547  1  0.53086000  0.26846000  0.22644000  1.0
  O  O548  1  0.53332000  0.75700000  0.47982000  1.0
  O  O549  1  0.55888000  0.85050000  0.51542000  1.0
  O  O550  1  0.63253000  0.71170000  0.49914000  1.0
  O  O551  1  0.67284000  0.79698000  0.52672000  1.0
  O  O552  1  0.59570000  0.88862000  0.61328000  1.0
  O  O553  1  0.50719000  0.89540000  0.64284000  1.0
  O  O554  1  0.53078000  0.75742000  0.57774000  1.0
  O  O555  1  0.59801000  0.80418000  0.63686000  1.0
  O  O556  1  0.61215000  0.53660000  0.04430000  1.0
  O  O557  1  0.54492000  0.58128000  0.10506000  1.0
  O  O558  1  0.62802000  0.67526000  0.17382000  1.0
  O  O559  1  0.68154000  0.65060000  0.09772000  1.0
  O  O560  1  0.60087000  0.59454000  0.98870000  1.0
  O  O561  1  0.51465000  0.55688000  0.97550000  1.0
  O  O562  1  0.52782000  0.67992000  0.11578000  1.0
  O  O563  1  0.58380000  0.70036000  0.06220000  1.0
  O  O564  1  0.01475000  0.05112000  0.64546000  1.0
  O  O565  1  0.06402000  0.11362000  0.63122000  1.0
  O  O566  1  0.12630000  0.16852000  0.70884000  1.0
  O  O567  1  0.12859000  0.14248000  0.77948000  1.0
  O  O568  1  0.10765000  0.02948000  0.69088000  1.0
  O  O569  1  0.15264000  0.94220000  0.66774000  1.0
  O  O570  1  0.01803000  0.18870000  0.74738000  1.0
  O  O571  1  0.01076000  0.12414000  0.77988000  1.0
  O  O572  1  0.97104000  0.55858000  0.92296000  1.0
  O  O573  1  0.02535000  0.60853000  0.99829000  1.0
  O  O574  1  0.12173000  0.60782000  0.89276000  1.0
  O  O575  1  0.09757000  0.52460000  0.89160000  1.0
  O  O576  1  0.05166000  0.68858000  0.97312000  1.0
  O  O577  1  0.96298000  0.71610000  0.97542000  1.0
  O  O578  1  0.01448000  0.53520000  0.82260000  1.0
  O  O579  1  0.00745000  0.63446000  0.86262000  1.0
  O  O580  1  0.07696000  0.34696000  0.41950000  1.0
  O  O581  1  0.13799000  0.32936000  0.35178000  1.0
  O  O582  1  0.12669000  0.22552000  0.40102000  1.0
  O  O583  1  0.14838000  0.18634000  0.30628000  1.0
  O  O584  1  0.08121000  0.26052000  0.26564000  1.0
  O  O585  1  0.00927000  0.32622000  0.30498000  1.0
  O  O586  1  0.01815000  0.25817000  0.38771000  1.0
  O  O587  1  0.02985000  0.19892000  0.28994000  1.0
  O  O588  1  0.40084000  0.48134000  0.61328000  1.0
  O  O589  1  0.35058000  0.56188000  0.64364000  1.0
  O  O590  1  0.34091000  0.48214000  0.71830000  1.0
  O  O591  1  0.32751000  0.57950000  0.77308000  1.0
  O  O592  1  0.41720000  0.62774000  0.71924000  1.0
  O  O593  1  0.49541000  0.58592000  0.66502000  1.0
  O  O594  1  0.45412000  0.48886000  0.70166000  1.0
  O  O595  1  0.44561000  0.58300000  0.77696000  1.0
  O  O596  1  0.45577000  0.94864000  0.36976000  1.0
  O  O597  1  0.37446000  0.95788000  0.40090000  1.0
  O  O598  1  0.33585000  0.06174000  0.40648000  1.0
  O  O599  1  0.33107000  0.99900000  0.30836000  1.0
  O  O600  1  0.41257000  0.94004000  0.26554000  1.0
  O  O601  1  0.50488000  0.94928000  0.26642000  1.0
  O  O602  1  0.43920000  0.08544000  0.42610000  1.0
  O  O603  1  0.44785000  0.05630000  0.32956000  1.0
  O  O604  1  0.49738000  0.28104000  0.91302000  1.0
  O  O605  1  0.43561000  0.29734000  0.97906000  1.0
  O  O606  1  0.38576000  0.26794000  0.85116000  1.0
  O  O607  1  0.34806000  0.20310000  0.87074000  1.0
  O  O608  1  0.42247000  0.18854000  0.94798000  1.0
  O  O609  1  0.51338000  0.18684000  0.96390000  1.0
  O  O610  1  0.48193000  0.19368000  0.81286000  1.0
  O  O611  1  0.45732000  0.13186000  0.84446000  1.0
