# generated using pymatgen
data_CoH16C26(SN7)2
_symmetry_space_group_name_H-M   'P 1'
_cell_length_a   19.87045000
_cell_length_b   37.11832222
_cell_length_c   37.12270000
_cell_angle_alpha   119.99770316
_cell_angle_beta   90.00000000
_cell_angle_gamma   90.00000000
_symmetry_Int_Tables_number   1
_chemical_formula_structural   CoH16C26(SN7)2
_chemical_formula_sum   'Co6 H96 C156 S12 N84'
_cell_volume   23712.44183130
_cell_formula_units_Z   6
loop_
 _symmetry_equiv_pos_site_id
 _symmetry_equiv_pos_as_xyz
  1  'x, y, z'
loop_
 _atom_site_type_symbol
 _atom_site_label
 _atom_site_symmetry_multiplicity
 _atom_site_fract_x
 _atom_site_fract_y
 _atom_site_fract_z
 _atom_site_occupancy
  C  C0  1  0.98996000  0.72475000  0.38354000  1.0
  C  C1  1  0.92430000  0.73963000  0.38375000  1.0
  C  C2  1  0.03370000  0.77498000  0.36694000  1.0
  C  C3  1  0.04466000  0.74401000  0.37648000  1.0
  C  C4  1  0.96834000  0.78750000  0.36568000  1.0
  C  C5  1  0.87198000  0.77315000  0.29629000  1.0
  C  C6  1  0.85722000  0.81299000  0.45962000  1.0
  C  C7  1  0.83712000  0.86252000  0.36016000  1.0
  C  C8  1  0.86532000  0.89847000  0.36334000  1.0
  C  C9  1  0.91586000  0.91954000  0.39245000  1.0
  C  C10  1  0.69276000  0.79303000  0.34045000  1.0
  C  C11  1  0.90518000  0.86969000  0.41557000  1.0
  C  C12  1  0.93626000  0.90543000  0.41933000  1.0
  C  C13  1  0.62868000  0.80548000  0.33652000  1.0
  C  C14  1  0.69974000  0.84724000  0.41057000  1.0
  C  C15  1  0.63290000  0.85890000  0.40844000  1.0
  C  C16  1  0.59892000  0.83868000  0.37043000  1.0
  C  C17  1  0.73852000  0.74861000  0.40567000  1.0
  C  C18  1  0.69472000  0.71809000  0.40259000  1.0
  C  C19  1  0.68310000  0.68348000  0.36432000  1.0
  C  C20  1  0.71718000  0.67867000  0.32929000  1.0
  C  C21  1  0.76716000  0.70812000  0.33454000  1.0
  C  C22  1  0.81546000  0.32547000  0.58104000  1.0
  C  C23  1  0.75066000  0.32782000  0.56657000  1.0
  C  C24  1  0.86012000  0.30644000  0.51375000  1.0
  C  C25  1  0.87038000  0.31598000  0.55433000  1.0
  C  C26  1  0.79538000  0.30749000  0.50025000  1.0
  C  C27  1  0.69420000  0.24222000  0.44343000  1.0
  C  C28  1  0.68604000  0.40500000  0.57226000  1.0
  C  C29  1  0.66752000  0.30895000  0.42123000  1.0
  C  C30  1  0.69894000  0.31164000  0.38902000  1.0
  C  C31  1  0.75348000  0.33836000  0.39779000  1.0
  C  C32  1  0.51914000  0.29118000  0.47082000  1.0
  C  C33  1  0.73966000  0.36089000  0.47045000  1.0
  C  C34  1  0.77460000  0.36359000  0.43900000  1.0
  C  C35  1  0.45546000  0.28891000  0.45454000  1.0
  C  C36  1  0.53194000  0.36095000  0.48637000  1.0
  C  C37  1  0.46542000  0.36059000  0.47276000  1.0
  C  C38  1  0.42880000  0.32352000  0.45512000  1.0
  C  C39  1  0.56102000  0.35087000  0.57624000  1.0
  C  C40  1  0.51690000  0.34694000  0.60306000  1.0
  C  C41  1  0.51040000  0.30891000  0.60096000  1.0
  C  C42  1  0.54974000  0.27525000  0.57298000  1.0
  C  C43  1  0.59930000  0.28177000  0.54959000  1.0
  C  C44  1  0.64528000  0.53622000  0.17793000  1.0
  C  C45  1  0.57928000  0.52197000  0.16316000  1.0
  C  C46  1  0.68700000  0.46766000  0.13110000  1.0
  C  C47  1  0.69912000  0.50866000  0.16022000  1.0
  C  C48  1  0.62146000  0.45454000  0.11853000  1.0
  C  C49  1  0.51942000  0.39881000  0.12879000  1.0
  C  C50  1  0.51174000  0.52561000  0.09125000  1.0
  C  C51  1  0.49364000  0.37512000  0.03963000  1.0
  C  C52  1  0.52504000  0.34260000  0.00489000  1.0
  C  C53  1  0.57922000  0.35106000  0.98641000  1.0
  C  C54  1  0.34564000  0.42636000  0.10755000  1.0
  C  C55  1  0.56528000  0.42388000  0.03577000  1.0
  C  C56  1  0.59998000  0.39223000  0.00173000  1.0
  C  C57  1  0.28258000  0.40895000  0.09349000  1.0
  C  C58  1  0.35864000  0.43855000  0.05110000  1.0
  C  C59  1  0.29264000  0.42369000  0.03757000  1.0
  C  C60  1  0.25634000  0.40717000  0.05821000  1.0
  C  C61  1  0.38782000  0.53140000  0.15025000  1.0
  C  C62  1  0.34342000  0.55865000  0.18047000  1.0
  C  C63  1  0.33656000  0.55769000  0.21695000  1.0
  C  C64  1  0.37584000  0.53039000  0.22373000  1.0
  C  C65  1  0.42580000  0.50656000  0.19427000  1.0
  C  C66  1  0.49122000  0.11986000  0.55899000  1.0
  C  C67  1  0.42526000  0.10551000  0.55889000  1.0
  C  C68  1  0.53262000  0.07340000  0.58122000  1.0
  C  C69  1  0.54512000  0.10150000  0.56797000  1.0
  C  C70  1  0.46662000  0.06271000  0.58396000  1.0
  C  C71  1  0.36886000  0.11471000  0.65311000  1.0
  C  C72  1  0.35344000  0.02681000  0.48724000  1.0
  C  C73  1  0.34528000  0.99111000  0.59491000  1.0
  C  C74  1  0.37802000  0.95745000  0.59420000  1.0
  C  C75  1  0.42804000  0.93628000  0.56480000  1.0
  C  C76  1  0.20240000  0.04850000  0.61651000  1.0
  C  C77  1  0.40680000  0.98070000  0.53609000  1.0
  C  C78  1  0.44360000  0.94811000  0.53545000  1.0
  C  C79  1  0.13976000  0.03533000  0.62199000  1.0
  C  C80  1  0.19084000  0.00891000  0.54341000  1.0
  C  C81  1  0.12634000  0.99553000  0.54782000  1.0
  C  C82  1  0.10196000  0.00865000  0.58774000  1.0
  C  C83  1  0.26082000  0.10973000  0.54413000  1.0
  C  C84  1  0.21884000  0.14074000  0.54619000  1.0
  C  C85  1  0.18850000  0.16840000  0.58342000  1.0
  C  C86  1  0.20054000  0.16506000  0.61863000  1.0
  C  C87  1  0.24270000  0.13296000  0.61510000  1.0
  C  C88  1  0.31738000  0.52190000  0.36822000  1.0
  C  C89  1  0.25202000  0.52012000  0.38241000  1.0
  C  C90  1  0.36048000  0.54199000  0.43609000  1.0
  C  C91  1  0.37174000  0.53149000  0.39534000  1.0
  C  C92  1  0.29530000  0.54159000  0.44930000  1.0
  C  C93  1  0.19302000  0.60697000  0.50535000  1.0
  C  C94  1  0.18664000  0.44342000  0.37758000  1.0
  C  C95  1  0.16714000  0.54078000  0.52821000  1.0
  C  C96  1  0.19832000  0.53832000  0.56063000  1.0
  C  C97  1  0.25290000  0.51165000  0.55216000  1.0
  C  C98  1  0.01924000  0.55787000  0.47767000  1.0
  C  C99  1  0.23960000  0.48876000  0.47942000  1.0
  C  C100  1  0.27430000  0.48626000  0.51105000  1.0
  C  C101  1  0.95568000  0.56047000  0.49426000  1.0
  C  C102  1  0.03208000  0.48846000  0.46323000  1.0
  C  C103  1  0.96570000  0.48911000  0.47713000  1.0
  C  C104  1  0.92914000  0.52620000  0.49440000  1.0
  C  C105  1  0.06196000  0.49640000  0.37215000  1.0
  C  C106  1  0.01802000  0.49934000  0.34468000  1.0
  C  C107  1  0.01094000  0.53688000  0.34585000  1.0
  C  C108  1  0.04938000  0.57113000  0.37368000  1.0
  C  C109  1  0.09882000  0.56562000  0.39789000  1.0
  C  C110  1  0.12918000  0.30587000  0.76882000  1.0
  C  C111  1  0.06606000  0.32393000  0.78541000  1.0
  C  C112  1  0.18160000  0.37175000  0.81345000  1.0
  C  C113  1  0.18714000  0.33008000  0.78430000  1.0
  C  C114  1  0.11842000  0.38875000  0.82808000  1.0
  C  C115  1  0.02390000  0.44639000  0.81620000  1.0
  C  C116  1  0.00310000  0.32591000  0.86098000  1.0
  C  C117  1  0.99934000  0.47583000  0.90740000  1.0
  C  C118  1  0.03368000  0.50829000  0.94049000  1.0
  C  C119  1  0.08720000  0.49942000  0.95900000  1.0
  C  C120  1  0.84638000  0.43136000  0.84661000  1.0
  C  C121  1  0.06646000  0.42637000  0.91320000  1.0
  C  C122  1  0.10442000  0.45802000  0.94553000  1.0
  C  C123  1  0.78436000  0.45010000  0.86163000  1.0
  C  C124  1  0.85658000  0.41538000  0.90063000  1.0
  C  C125  1  0.79124000  0.43102000  0.91456000  1.0
  C  C126  1  0.75694000  0.45024000  0.89586000  1.0
  C  C127  1  0.87612000  0.32353000  0.80420000  1.0
  C  C128  1  0.82920000  0.29737000  0.77518000  1.0
  C  C129  1  0.82322000  0.29674000  0.73781000  1.0
  C  C130  1  0.86568000  0.32138000  0.72899000  1.0
  C  C131  1  0.91710000  0.34443000  0.75760000  1.0
  C  C132  1  0.98908000  0.92742000  0.45132000  1.0
  C  C133  1  0.08240000  0.96916000  0.51188000  1.0
  C  C134  1  0.92900000  0.45137000  0.46906000  1.0
  C  C135  1  0.83170000  0.39298000  0.44969000  1.0
  C  C136  1  0.65644000  0.40291000  0.98260000  1.0
  C  C137  1  0.75320000  0.42262000  0.94359000  1.0
  C  C138  1  0.49838000  0.92778000  0.50463000  1.0
  C  C139  1  0.59406000  0.88804000  0.44538000  1.0
  C  C140  1  0.42878000  0.39847000  0.48116000  1.0
  C  C141  1  0.33140000  0.45685000  0.50053000  1.0
  C  C142  1  0.16062000  0.44766000  0.96516000  1.0
  C  C143  1  0.25606000  0.42996000  0.00658000  1.0
  C  C144  1  0.69642000  0.64442000  0.28793000  1.0
  C  C145  1  0.65930000  0.57753000  0.21434000  1.0
  C  C146  1  0.53402000  0.23341000  0.56613000  1.0
  C  C147  1  0.50376000  0.15772000  0.55645000  1.0
  C  C148  1  0.32950000  0.51827000  0.32733000  1.0
  C  C149  1  0.35978000  0.52491000  0.25955000  1.0
  C  C150  1  0.13636000  0.26386000  0.73265000  1.0
  C  C151  1  0.17306000  0.19671000  0.65933000  1.0
  C  C152  1  0.03310000  0.61244000  0.37922000  1.0
  C  C153  1  0.00230000  0.68704000  0.38638000  1.0
  C  C154  1  0.85218000  0.32493000  0.69174000  1.0
  C  C155  1  0.82626000  0.32918000  0.62211000  1.0
  Co  Co156  1  0.82158000  0.79450000  0.37751000  1.0
  Co  Co157  1  0.64990000  0.32432000  0.50569000  1.0
  Co  Co158  1  0.47634000  0.46047000  0.10770000  1.0
  Co  Co159  1  0.32106000  0.05500000  0.57264000  1.0
  Co  Co160  1  0.15008000  0.52446000  0.44325000  1.0
  Co  Co161  1  0.97274000  0.39056000  0.84281000  1.0
  H  H162  1  0.71090000  0.76499000  0.31402000  1.0
  H  H163  1  0.60120000  0.78830000  0.30762000  1.0
  H  H164  1  0.72634000  0.86412000  0.43969000  1.0
  H  H165  1  0.54760000  0.84679000  0.36755000  1.0
  H  H166  1  0.88264000  0.72544000  0.39061000  1.0
  H  H167  1  0.96326000  0.80981000  0.35554000  1.0
  H  H168  1  0.07564000  0.78857000  0.35933000  1.0
  H  H169  1  0.09578000  0.73357000  0.37588000  1.0
  H  H170  1  0.79816000  0.84662000  0.33730000  1.0
  H  H171  1  0.84826000  0.90979000  0.34311000  1.0
  H  H172  1  0.93790000  0.94714000  0.39440000  1.0
  H  H173  1  0.92248000  0.85814000  0.43539000  1.0
  H  H174  1  0.73730000  0.77678000  0.43515000  1.0
  H  H175  1  0.66650000  0.72265000  0.42950000  1.0
  H  H176  1  0.64600000  0.66106000  0.36206000  1.0
  H  H177  1  0.79486000  0.70305000  0.30746000  1.0
  H  H178  1  0.53478000  0.26453000  0.47288000  1.0
  H  H179  1  0.42576000  0.26084000  0.44311000  1.0
  H  H180  1  0.56064000  0.38937000  0.49871000  1.0
  H  H181  1  0.37764000  0.32206000  0.44435000  1.0
  H  H182  1  0.70900000  0.33655000  0.58793000  1.0
  H  H183  1  0.79058000  0.29771000  0.46786000  1.0
  H  H184  1  0.90206000  0.29723000  0.49234000  1.0
  H  H185  1  0.92088000  0.31377000  0.56404000  1.0
  H  H186  1  0.62592000  0.28763000  0.41375000  1.0
  H  H187  1  0.68150000  0.29271000  0.35734000  1.0
  H  H188  1  0.77816000  0.33977000  0.37252000  1.0
  H  H189  1  0.75652000  0.37970000  0.50213000  1.0
  H  H190  1  0.55714000  0.37938000  0.57551000  1.0
  H  H191  1  0.48472000  0.37266000  0.62354000  1.0
  H  H192  1  0.47302000  0.30559000  0.62036000  1.0
  H  H193  1  0.63126000  0.25608000  0.52928000  1.0
  H  H194  1  0.36116000  0.43002000  0.13696000  1.0
  H  H195  1  0.25304000  0.39836000  0.11092000  1.0
  H  H196  1  0.38736000  0.44996000  0.03419000  1.0
  H  H197  1  0.20562000  0.39549000  0.04882000  1.0
  H  H198  1  0.53810000  0.54369000  0.17626000  1.0
  H  H199  1  0.61550000  0.42191000  0.09715000  1.0
  H  H200  1  0.72820000  0.44568000  0.11883000  1.0
  H  H201  1  0.75036000  0.51806000  0.17067000  1.0
  H  H202  1  0.45222000  0.36792000  0.05381000  1.0
  H  H203  1  0.50782000  0.31094000  0.99265000  1.0
  H  H204  1  0.60386000  0.32562000  0.95987000  1.0
  H  H205  1  0.58210000  0.45550000  0.04817000  1.0
  H  H206  1  0.38380000  0.52969000  0.12058000  1.0
  H  H207  1  0.31122000  0.57854000  0.17438000  1.0
  H  H208  1  0.29896000  0.57740000  0.23924000  1.0
  H  H209  1  0.45762000  0.48671000  0.20041000  1.0
  H  H210  1  0.22796000  0.06950000  0.64477000  1.0
  H  H211  1  0.12036000  0.04624000  0.65301000  1.0
  H  H212  1  0.20848000  0.99745000  0.51218000  1.0
  H  H213  1  0.05270000  0.99928000  0.59259000  1.0
  H  H214  1  0.38480000  0.11959000  0.55135000  1.0
  H  H215  1  0.45916000  0.04483000  0.59923000  1.0
  H  H216  1  0.57366000  0.06155000  0.59148000  1.0
  H  H217  1  0.59648000  0.11143000  0.56830000  1.0
  H  H218  1  0.30924000  0.00810000  0.61928000  1.0
  H  H219  1  0.36574000  0.94851000  0.61706000  1.0
  H  H220  1  0.45442000  0.91093000  0.56514000  1.0
  H  H221  1  0.42166000  0.99083000  0.51490000  1.0
  H  H222  1  0.28258000  0.09001000  0.51429000  1.0
  H  H223  1  0.21008000  0.14329000  0.51876000  1.0
  H  H224  1  0.15692000  0.19282000  0.58476000  1.0
  H  H225  1  0.24674000  0.12966000  0.64211000  1.0
  H  H226  1  0.03478000  0.58422000  0.47506000  1.0
  H  H227  1  0.92602000  0.58851000  0.50536000  1.0
  H  H228  1  0.06076000  0.46006000  0.45120000  1.0
  H  H229  1  0.87804000  0.52786000  0.50534000  1.0
  H  H230  1  0.21066000  0.51144000  0.36083000  1.0
  H  H231  1  0.28980000  0.55211000  0.48181000  1.0
  H  H232  1  0.40198000  0.55147000  0.45783000  1.0
  H  H233  1  0.42260000  0.53333000  0.38587000  1.0
  H  H234  1  0.12546000  0.56201000  0.53545000  1.0
  H  H235  1  0.18068000  0.55738000  0.59225000  1.0
  H  H236  1  0.27736000  0.51042000  0.57758000  1.0
  H  H237  1  0.25670000  0.46982000  0.44782000  1.0
  H  H238  1  0.05822000  0.46823000  0.37351000  1.0
  H  H239  1  0.98642000  0.47321000  0.32436000  1.0
  H  H240  1  0.97378000  0.53937000  0.32585000  1.0
  H  H241  1  0.13004000  0.59176000  0.41817000  1.0
  H  H242  1  0.86186000  0.42862000  0.81760000  1.0
  H  H243  1  0.75620000  0.46268000  0.84546000  1.0
  H  H244  1  0.88342000  0.40208000  0.91645000  1.0
  H  H245  1  0.70672000  0.46268000  0.90574000  1.0
  H  H246  1  0.02212000  0.30436000  0.77396000  1.0
  H  H247  1  0.11734000  0.42168000  0.84914000  1.0
  H  H248  1  0.22602000  0.39121000  0.82409000  1.0
  H  H249  1  0.23646000  0.31741000  0.77207000  1.0
  H  H250  1  0.95864000  0.48345000  0.89309000  1.0
  H  H251  1  0.01930000  0.54022000  0.95138000  1.0
  H  H252  1  0.11414000  0.52489000  0.98424000  1.0
  H  H253  1  0.08014000  0.39444000  0.90229000  1.0
  H  H254  1  0.87268000  0.32643000  0.83443000  1.0
  H  H255  1  0.79494000  0.27941000  0.78271000  1.0
  H  H256  1  0.78416000  0.27776000  0.71632000  1.0
  H  H257  1  0.95128000  0.36219000  0.74997000  1.0
  N  N258  1  0.72972000  0.81468000  0.37638000  1.0
  N  N259  1  0.91374000  0.77205000  0.37640000  1.0
  N  N260  1  0.82696000  0.76868000  0.31761000  1.0
  N  N261  1  0.81914000  0.82113000  0.43743000  1.0
  N  N262  1  0.85930000  0.84709000  0.38465000  1.0
  N  N263  1  0.77582000  0.74405000  0.37231000  1.0
  N  N264  1  0.55886000  0.32597000  0.48469000  1.0
  N  N265  1  0.74096000  0.32038000  0.52670000  1.0
  N  N266  1  0.65128000  0.26437000  0.47048000  1.0
  N  N267  1  0.65050000  0.38416000  0.54027000  1.0
  N  N268  1  0.69018000  0.33175000  0.46124000  1.0
  N  N269  1  0.60282000  0.31892000  0.54990000  1.0
  N  N270  1  0.38522000  0.43907000  0.08561000  1.0
  N  N271  1  0.56790000  0.48166000  0.13192000  1.0
  N  N272  1  0.47798000  0.42672000  0.13406000  1.0
  N  N273  1  0.47654000  0.49364000  0.08089000  1.0
  N  N274  1  0.51618000  0.41510000  0.05620000  1.0
  N  N275  1  0.42970000  0.50573000  0.15686000  1.0
  N  N276  1  0.22948000  0.03500000  0.57765000  1.0
  N  N277  1  0.41318000  0.07555000  0.56954000  1.0
  N  N278  1  0.33556000  0.08171000  0.63198000  1.0
  N  N279  1  0.31118000  0.02718000  0.51283000  1.0
  N  N280  1  0.36060000  0.00328000  0.56663000  1.0
  N  N281  1  0.27424000  0.10563000  0.57834000  1.0
  N  N282  1  0.05894000  0.52313000  0.46425000  1.0
  N  N283  1  0.24142000  0.52818000  0.42241000  1.0
  N  N284  1  0.15126000  0.58450000  0.47759000  1.0
  N  N285  1  0.15104000  0.46454000  0.40947000  1.0
  N  N286  1  0.19010000  0.51781000  0.48829000  1.0
  N  N287  1  0.10320000  0.52883000  0.39830000  1.0
  N  N288  1  0.88424000  0.41596000  0.86693000  1.0
  N  N289  1  0.06098000  0.36486000  0.81649000  1.0
  N  N290  1  0.97734000  0.42272000  0.81486000  1.0
  N  N291  1  0.97066000  0.35879000  0.87107000  1.0
  N  N292  1  0.01800000  0.43535000  0.89247000  1.0
  N  N293  1  0.92058000  0.34670000  0.79568000  1.0
  N  N294  1  0.03302000  0.95412000  0.44864000  1.0
  N  N295  1  0.99374000  0.92152000  0.48447000  1.0
  N  N296  1  0.03904000  0.94213000  0.51420000  1.0
  N  N297  1  0.07886000  0.97458000  0.47834000  1.0
  N  N298  1  0.88772000  0.45289000  0.49890000  1.0
  N  N299  1  0.92176000  0.41953000  0.42942000  1.0
  N  N300  1  0.87418000  0.39078000  0.41994000  1.0
  N  N301  1  0.84058000  0.42408000  0.48950000  1.0
  N  N302  1  0.69944000  0.37336000  0.95533000  1.0
  N  N303  1  0.66444000  0.44268000  0.99097000  1.0
  N  N304  1  0.71132000  0.45225000  0.97158000  1.0
  N  N305  1  0.74678000  0.38301000  0.93606000  1.0
  N  N306  1  0.50282000  0.93359000  0.47141000  1.0
  N  N307  1  0.54424000  0.90263000  0.50833000  1.0
  N  N308  1  0.59106000  0.88297000  0.47913000  1.0
  N  N309  1  0.54920000  0.91386000  0.44223000  1.0
  N  N310  1  0.38830000  0.39737000  0.45121000  1.0
  N  N311  1  0.42068000  0.42987000  0.52095000  1.0
  N  N312  1  0.37310000  0.45862000  0.53043000  1.0
  N  N313  1  0.34114000  0.42617000  0.46062000  1.0
  N  N314  1  0.16644000  0.40874000  0.95951000  1.0
  N  N315  1  0.20528000  0.47718000  0.99076000  1.0
  N  N316  1  0.25194000  0.46855000  0.01119000  1.0
  N  N317  1  0.21270000  0.40020000  0.98009000  1.0
  N  N318  1  0.63394000  0.62746000  0.28268000  1.0
  N  N319  1  0.73916000  0.62829000  0.25510000  1.0
  N  N320  1  0.72106000  0.59529000  0.21915000  1.0
  N  N321  1  0.61570000  0.59466000  0.24669000  1.0
  N  N322  1  0.58064000  0.20261000  0.55096000  1.0
  N  N323  1  0.47152000  0.22519000  0.57507000  1.0
  N  N324  1  0.45668000  0.18817000  0.57044000  1.0
  N  N325  1  0.56592000  0.16561000  0.54662000  1.0
  N  N326  1  0.28262000  0.53173000  0.31029000  1.0
  N  N327  1  0.39132000  0.50731000  0.30925000  1.0
  N  N328  1  0.40608000  0.51021000  0.27579000  1.0
  N  N329  1  0.29750000  0.53491000  0.27704000  1.0
  N  N330  1  0.18926000  0.23978000  0.73069000  1.0
  N  N331  1  0.10062000  0.25293000  0.69754000  1.0
  N  N332  1  0.11870000  0.21999000  0.66155000  1.0
  N  N333  1  0.20696000  0.20667000  0.69482000  1.0
  N  N334  1  0.97128000  0.61954000  0.36828000  1.0
  N  N335  1  0.07864000  0.64382000  0.39504000  1.0
  N  N336  1  0.06364000  0.68028000  0.39821000  1.0
  N  N337  1  0.95616000  0.65605000  0.37171000  1.0
  N  N338  1  0.79016000  0.31560000  0.67387000  1.0
  N  N339  1  0.90062000  0.33752000  0.67474000  1.0
  N  N340  1  0.88798000  0.33926000  0.64040000  1.0
  N  N341  1  0.77738000  0.31763000  0.63974000  1.0
  S  S342  1  0.92066000  0.77745000  0.27103000  1.0
  S  S343  1  0.89914000  0.80481000  0.48534000  1.0
  S  S344  1  0.74044000  0.21607000  0.41250000  1.0
  S  S345  1  0.72506000  0.42945000  0.60810000  1.0
  S  S346  1  0.56406000  0.36704000  0.12367000  1.0
  S  S347  1  0.55034000  0.56139000  0.10169000  1.0
  S  S348  1  0.40562000  0.15174000  0.67676000  1.0
  S  S349  1  0.39990000  0.02606000  0.45817000  1.0
  S  S350  1  0.23802000  0.63342000  0.53697000  1.0
  S  S351  1  0.22574000  0.41867000  0.34186000  1.0
  S  S352  1  0.07422000  0.47359000  0.81700000  1.0
  S  S353  1  0.03870000  0.28918000  0.85088000  1.0
