# generated using pymatgen
data_Co2H8C16O9
_symmetry_space_group_name_H-M   'P 1'
_cell_length_a   19.98605000
_cell_length_b   38.35510000
_cell_length_c   38.35420000
_cell_angle_alpha   89.99200000
_cell_angle_beta   90.00000000
_cell_angle_gamma   90.00000000
_symmetry_Int_Tables_number   1
_chemical_formula_structural   Co2H8C16O9
_chemical_formula_sum   'Co32 H128 C256 O144'
_cell_volume   29401.06168729
_cell_formula_units_Z   16
loop_
 _symmetry_equiv_pos_site_id
 _symmetry_equiv_pos_as_xyz
  1  'x, y, z'
loop_
 _atom_site_type_symbol
 _atom_site_label
 _atom_site_symmetry_multiplicity
 _atom_site_fract_x
 _atom_site_fract_y
 _atom_site_fract_z
 _atom_site_occupancy
  C  C0  1  0.45778000  0.90835000  0.85733000  1.0
  C  C1  1  0.49374000  0.86224000  0.77356000  1.0
  C  C2  1  0.61504000  0.93446000  0.87998000  1.0
  C  C3  1  0.69508000  0.84296000  0.83133000  1.0
  C  C4  1  0.22432000  0.35213000  0.97860000  1.0
  C  C5  1  0.25926000  0.27152000  0.02887000  1.0
  C  C6  1  0.38098000  0.37573000  0.95412000  1.0
  C  C7  1  0.46022000  0.33215000  0.04770000  1.0
  C  C8  1  0.96748000  0.48340000  0.53485000  1.0
  C  C9  1  0.99824000  0.52582000  0.61898000  1.0
  C  C10  1  0.12774000  0.46187000  0.51194000  1.0
  C  C11  1  0.20152000  0.55290000  0.56200000  1.0
  C  C12  1  0.69716000  0.02942000  0.39523000  1.0
  C  C13  1  0.73450000  0.11571000  0.35129000  1.0
  C  C14  1  0.85300000  0.00916000  0.42543000  1.0
  C  C15  1  0.93736000  0.06018000  0.33573000  1.0
  C  C16  1  0.95650000  0.47921000  0.82326000  1.0
  C  C17  1  0.90208000  0.55580000  0.75652000  1.0
  C  C18  1  0.80472000  0.46698000  0.86557000  1.0
  C  C19  1  0.72320000  0.55276000  0.83027000  1.0
  C  C20  1  0.72462000  0.34539000  0.39836000  1.0
  C  C21  1  0.68894000  0.26127000  0.35204000  1.0
  C  C22  1  0.56606000  0.36871000  0.42258000  1.0
  C  C23  1  0.48844000  0.32223000  0.33162000  1.0
  C  C24  1  0.48804000  0.88082000  0.53468000  1.0
  C  C25  1  0.44718000  0.85166000  0.62800000  1.0
  C  C26  1  0.33244000  0.91630000  0.51432000  1.0
  C  C27  1  0.24406000  0.83648000  0.57650000  1.0
  C  C28  1  0.24158000  0.03555000  0.01089000  1.0
  C  C29  1  0.20554000  0.12766000  0.04342000  1.0
  C  C30  1  0.08490000  0.01741000  0.97589000  1.0
  C  C31  1  0.99912000  0.07918000  0.05758000  1.0
  C  C32  1  0.96594000  0.40057000  0.34573000  1.0
  C  C33  1  0.00014000  0.35519000  0.26137000  1.0
  C  C34  1  0.12472000  0.42482000  0.36886000  1.0
  C  C35  1  0.20202000  0.33419000  0.32023000  1.0
  C  C36  1  0.72560000  0.82303000  0.47766000  1.0
  C  C37  1  0.78386000  0.75712000  0.55429000  1.0
  C  C38  1  0.87668000  0.86520000  0.46287000  1.0
  C  C39  1  0.96042000  0.83203000  0.54892000  1.0
  C  C40  1  0.48194000  0.98013000  0.06591000  1.0
  C  C41  1  0.53154000  0.05694000  0.13234000  1.0
  C  C42  1  0.63508000  0.96882000  0.02467000  1.0
  C  C43  1  0.71430000  0.05513000  0.06065000  1.0
  C  C44  1  0.19614000  0.53531000  0.87895000  1.0
  C  C45  1  0.23344000  0.62781000  0.84732000  1.0
  C  C46  1  0.35264000  0.51678000  0.91434000  1.0
  C  C47  1  0.43904000  0.57879000  0.83325000  1.0
  C  C48  1  0.45768000  0.97159000  0.34393000  1.0
  C  C49  1  0.42196000  0.01856000  0.26447000  1.0
  C  C50  1  0.30070000  0.95204000  0.37200000  1.0
  C  C51  1  0.22392000  0.04538000  0.32893000  1.0
  C  C52  1  0.21758000  0.85343000  0.91062000  1.0
  C  C53  1  0.18246000  0.77219000  0.86076000  1.0
  C  C54  1  0.06062000  0.87634000  0.93571000  1.0
  C  C55  1  0.98150000  0.83237000  0.84235000  1.0
  C  C56  1  0.98408000  0.40622000  0.03252000  1.0
  C  C57  1  0.94936000  0.35986000  0.11655000  1.0
  C  C58  1  0.82694000  0.43259000  0.01037000  1.0
  C  C59  1  0.74672000  0.34144000  0.05968000  1.0
  C  C60  1  0.72302000  0.53504000  0.48245000  1.0
  C  C61  1  0.69126000  0.61881000  0.52520000  1.0
  C  C62  1  0.56312000  0.51164000  0.46074000  1.0
  C  C63  1  0.48860000  0.56131000  0.55209000  1.0
  C  C64  1  0.40332000  0.84582000  0.68884000  1.0
  C  C65  1  0.45712000  0.84389000  0.66546000  1.0
  C  C66  1  0.52252000  0.84108000  0.67888000  1.0
  C  C67  1  0.53440000  0.84335000  0.71480000  1.0
  C  C68  1  0.48112000  0.84914000  0.73784000  1.0
  C  C69  1  0.41530000  0.84875000  0.72470000  1.0
  C  C70  1  0.28308000  0.17759000  0.05395000  1.0
  C  C71  1  0.21706000  0.16499000  0.05111000  1.0
  C  C72  1  0.16450000  0.18903000  0.04844000  1.0
  C  C73  1  0.17834000  0.22459000  0.04452000  1.0
  C  C74  1  0.24484000  0.23677000  0.04384000  1.0
  C  C75  1  0.29684000  0.21325000  0.05065000  1.0
  C  C76  1  0.01376000  0.55752000  0.67618000  1.0
  C  C77  1  0.97188000  0.54152000  0.65153000  1.0
  C  C78  1  0.90446000  0.53567000  0.66028000  1.0
  C  C79  1  0.88064000  0.54284000  0.69371000  1.0
  C  C80  1  0.92362000  0.55603000  0.71941000  1.0
  C  C81  1  0.98980000  0.56468000  0.70992000  1.0
  C  C82  1  0.77788000  0.17567000  0.33897000  1.0
  C  C83  1  0.72402000  0.15229000  0.34012000  1.0
  C  C84  1  0.65844000  0.16558000  0.33764000  1.0
  C  C85  1  0.64674000  0.20160000  0.33745000  1.0
  C  C86  1  0.70042000  0.22493000  0.34040000  1.0
  C  C87  1  0.76614000  0.21168000  0.33944000  1.0
  C  C88  1  0.04126000  0.34386000  0.20086000  1.0
  C  C89  1  0.98826000  0.34456000  0.22478000  1.0
  C  C90  1  0.92218000  0.34280000  0.21209000  1.0
  C  C91  1  0.90916000  0.34377000  0.17622000  1.0
  C  C92  1  0.96202000  0.34723000  0.15246000  1.0
  C  C93  1  0.02822000  0.34552000  0.16500000  1.0
  C  C94  1  0.78408000  0.66070000  0.53505000  1.0
  C  C95  1  0.71682000  0.65156000  0.54085000  1.0
  C  C96  1  0.67428000  0.67604000  0.55663000  1.0
  C  C97  1  0.69736000  0.70998000  0.56359000  1.0
  C  C98  1  0.76334000  0.71986000  0.55493000  1.0
  C  C99  1  0.80702000  0.69434000  0.54200000  1.0
  C  C100  1  0.54700000  0.04129000  0.19500000  1.0
  C  C101  1  0.50642000  0.05556000  0.16881000  1.0
  C  C102  1  0.43912000  0.06335000  0.17683000  1.0
  C  C103  1  0.41178000  0.05415000  0.20936000  1.0
  C  C104  1  0.45140000  0.03692000  0.23418000  1.0
  C  C105  1  0.51980000  0.03202000  0.22718000  1.0
  C  C106  1  0.27546000  0.68898000  0.84185000  1.0
  C  C107  1  0.22242000  0.66518000  0.83958000  1.0
  C  C108  1  0.15660000  0.67808000  0.83687000  1.0
  C  C109  1  0.14356000  0.71384000  0.83986000  1.0
  C  C110  1  0.19610000  0.73717000  0.84622000  1.0
  C  C111  1  0.26234000  0.72464000  0.84546000  1.0
  C  C112  1  0.63146000  0.97932000  0.92677000  1.0
  C  C113  1  0.63646000  0.94437000  0.91566000  1.0
  C  C114  1  0.65280000  0.91875000  0.94032000  1.0
  C  C115  1  0.65784000  0.92734000  0.97561000  1.0
  C  C116  1  0.64612000  0.96172000  0.98710000  1.0
  C  C117  1  0.63602000  0.98788000  0.96211000  1.0
  C  C118  1  0.38596000  0.45605000  0.89765000  1.0
  C  C119  1  0.38118000  0.48222000  0.92303000  1.0
  C  C120  1  0.39294000  0.47339000  0.95815000  1.0
  C  C121  1  0.40042000  0.43860000  0.96816000  1.0
  C  C122  1  0.39640000  0.41195000  0.94321000  1.0
  C  C123  1  0.39366000  0.42122000  0.90764000  1.0
  C  C124  1  0.15390000  0.41784000  0.46569000  1.0
  C  C125  1  0.14838000  0.45305000  0.47585000  1.0
  C  C126  1  0.15026000  0.47886000  0.44997000  1.0
  C  C127  1  0.14934000  0.46955000  0.41474000  1.0
  C  C128  1  0.14620000  0.43423000  0.40468000  1.0
  C  C129  1  0.15264000  0.40852000  0.43047000  1.0
  C  C130  1  0.87106000  0.96334000  0.47116000  1.0
  C  C131  1  0.87508000  0.97373000  0.43593000  1.0
  C  C132  1  0.89114000  0.94859000  0.41075000  1.0
  C  C133  1  0.89698000  0.91350000  0.42011000  1.0
  C  C134  1  0.88636000  0.90270000  0.45482000  1.0
  C  C135  1  0.87638000  0.92821000  0.48047000  1.0
  C  C136  1  0.80534000  0.48599000  0.92818000  1.0
  C  C137  1  0.79470000  0.45985000  0.90324000  1.0
  C  C138  1  0.78318000  0.42547000  0.91480000  1.0
  C  C139  1  0.78870000  0.41687000  0.95009000  1.0
  C  C140  1  0.80534000  0.44249000  0.97468000  1.0
  C  C141  1  0.81036000  0.47743000  0.96352000  1.0
  C  C142  1  0.53696000  0.46564000  0.41645000  1.0
  C  C143  1  0.54280000  0.47555000  0.45172000  1.0
  C  C144  1  0.54144000  0.44947000  0.47735000  1.0
  C  C145  1  0.54238000  0.41431000  0.46776000  1.0
  C  C146  1  0.54502000  0.40451000  0.43235000  1.0
  C  C147  1  0.53826000  0.43050000  0.40686000  1.0
  C  C148  1  0.29382000  0.95933000  0.46967000  1.0
  C  C149  1  0.30416000  0.92434000  0.47953000  1.0
  C  C150  1  0.29732000  0.89823000  0.45422000  1.0
  C  C151  1  0.28860000  0.90722000  0.41917000  1.0
  C  C152  1  0.28688000  0.94250000  0.40879000  1.0
  C  C153  1  0.28534000  0.96832000  0.43467000  1.0
  C  C154  1  0.03938000  0.93910000  0.92181000  1.0
  C  C155  1  0.04414000  0.91241000  0.94668000  1.0
  C  C156  1  0.04638000  0.92158000  0.98228000  1.0
  C  C157  1  0.05290000  0.95645000  0.99239000  1.0
  C  C158  1  0.05700000  0.98274000  0.96709000  1.0
  C  C159  1  0.04564000  0.97392000  0.93192000  1.0
  C  C160  1  0.27682000  0.90159000  0.88109000  1.0
  C  C161  1  0.27864000  0.87344000  0.90456000  1.0
  C  C162  1  0.34010000  0.86123000  0.91690000  1.0
  C  C163  1  0.39926000  0.87467000  0.90309000  1.0
  C  C164  1  0.39730000  0.90086000  0.87744000  1.0
  C  C165  1  0.33600000  0.91555000  0.86785000  1.0
  C  C166  1  0.16440000  0.40067000  0.00698000  1.0
  C  C167  1  0.16282000  0.37180000  0.98441000  1.0
  C  C168  1  0.10144000  0.35848000  0.97320000  1.0
  C  C169  1  0.04230000  0.37164000  0.98728000  1.0
  C  C170  1  0.04418000  0.39861000  0.01212000  1.0
  C  C171  1  0.10520000  0.41432000  0.02050000  1.0
  C  C172  1  0.84570000  0.52772000  0.47522000  1.0
  C  C173  1  0.78502000  0.51575000  0.48886000  1.0
  C  C174  1  0.78502000  0.48865000  0.51356000  1.0
  C  C175  1  0.84518000  0.47543000  0.52643000  1.0
  C  C176  1  0.90580000  0.48983000  0.51528000  1.0
  C  C177  1  0.90586000  0.51508000  0.48868000  1.0
  C  C178  1  0.52200000  0.99367000  0.39395000  1.0
  C  C179  1  0.52154000  0.97649000  0.36161000  1.0
  C  C180  1  0.58114000  0.97247000  0.34302000  1.0
  C  C181  1  0.63952000  0.98822000  0.35520000  1.0
  C  C182  1  0.63892000  0.00785000  0.38623000  1.0
  C  C183  1  0.58064000  0.00893000  0.40645000  1.0
  C  C184  1  0.09452000  0.49705000  0.88649000  1.0
  C  C185  1  0.13960000  0.51489000  0.86472000  1.0
  C  C186  1  0.12878000  0.51452000  0.82845000  1.0
  C  C187  1  0.07152000  0.49938000  0.81455000  1.0
  C  C188  1  0.02448000  0.48366000  0.83644000  1.0
  C  C189  1  0.03712000  0.48148000  0.87237000  1.0
  C  C190  1  0.84682000  0.35465000  0.40548000  1.0
  C  C191  1  0.78554000  0.36540000  0.39157000  1.0
  C  C192  1  0.78394000  0.39225000  0.36662000  1.0
  C  C193  1  0.84330000  0.40646000  0.35380000  1.0
  C  C194  1  0.90468000  0.39328000  0.36527000  1.0
  C  C195  1  0.90622000  0.36825000  0.39205000  1.0
  C  C196  1  0.55566000  0.82967000  0.51584000  1.0
  C  C197  1  0.54428000  0.86587000  0.51454000  1.0
  C  C198  1  0.58808000  0.88687000  0.49499000  1.0
  C  C199  1  0.64470000  0.87216000  0.47917000  1.0
  C  C200  1  0.65790000  0.83640000  0.48285000  1.0
  C  C201  1  0.61212000  0.81520000  0.50044000  1.0
  C  C202  1  0.30812000  0.01321000  0.06106000  1.0
  C  C203  1  0.29824000  0.01496000  0.02475000  1.0
  C  C204  1  0.34456000  0.99849000  0.00262000  1.0
  C  C205  1  0.40228000  0.98307000  0.01652000  1.0
  C  C206  1  0.41396000  0.98396000  0.05259000  1.0
  C  C207  1  0.36570000  0.99819000  0.07476000  1.0
  C  C208  1  0.86690000  0.81001000  0.85603000  1.0
  C  C209  1  0.90846000  0.83216000  0.83670000  1.0
  C  C210  1  0.87928000  0.85610000  0.81338000  1.0
  C  C211  1  0.80980000  0.85900000  0.81072000  1.0
  C  C212  1  0.76822000  0.83768000  0.83095000  1.0
  C  C213  1  0.79744000  0.81257000  0.85300000  1.0
  C  C214  1  0.56250000  0.35584000  0.07668000  1.0
  C  C215  1  0.53320000  0.33168000  0.05364000  1.0
  C  C216  1  0.57460000  0.30898000  0.03487000  1.0
  C  C217  1  0.64406000  0.31121000  0.03816000  1.0
  C  C218  1  0.67346000  0.33651000  0.05991000  1.0
  C  C219  1  0.63198000  0.35840000  0.07960000  1.0
  C  C220  1  0.30508000  0.58219000  0.54010000  1.0
  C  C221  1  0.27480000  0.55809000  0.56288000  1.0
  C  C222  1  0.31558000  0.53735000  0.58416000  1.0
  C  C223  1  0.38522000  0.53970000  0.58175000  1.0
  C  C224  1  0.41544000  0.56250000  0.55765000  1.0
  C  C225  1  0.37468000  0.58420000  0.53734000  1.0
  C  C226  1  0.12168000  0.07327000  0.35414000  1.0
  C  C227  1  0.15120000  0.05229000  0.32823000  1.0
  C  C228  1  0.11010000  0.03635000  0.30332000  1.0
  C  C229  1  0.04072000  0.04034000  0.30497000  1.0
  C  C230  1  0.01094000  0.05996000  0.33185000  1.0
  C  C231  1  0.05216000  0.07688000  0.35608000  1.0
  C  C232  1  0.55304000  0.58447000  0.86050000  1.0
  C  C233  1  0.51280000  0.57592000  0.83175000  1.0
  C  C234  1  0.54308000  0.56135000  0.80200000  1.0
  C  C235  1  0.61144000  0.55412000  0.80146000  1.0
  C  C236  1  0.65142000  0.56188000  0.83041000  1.0
  C  C237  1  0.62192000  0.57777000  0.85970000  1.0
  C  C238  1  0.31722000  0.34924000  0.29946000  1.0
  C  C239  1  0.27514000  0.32863000  0.32015000  1.0
  C  C240  1  0.30382000  0.30393000  0.34285000  1.0
  C  C241  1  0.37324000  0.30103000  0.34599000  1.0
  C  C242  1  0.41532000  0.32241000  0.32611000  1.0
  C  C243  1  0.38664000  0.34598000  0.30223000  1.0
  C  C244  1  0.14106000  0.80487000  0.55811000  1.0
  C  C245  1  0.17046000  0.83476000  0.57290000  1.0
  C  C246  1  0.12954000  0.86333000  0.58113000  1.0
  C  C247  1  0.06082000  0.86218000  0.57402000  1.0
  C  C248  1  0.03218000  0.83269000  0.55806000  1.0
  C  C249  1  0.07286000  0.80397000  0.55049000  1.0
  C  C250  1  0.82612000  0.05574000  0.08949000  1.0
  C  C251  1  0.78622000  0.06397000  0.06064000  1.0
  C  C252  1  0.81608000  0.07985000  0.03142000  1.0
  C  C253  1  0.88514000  0.08603000  0.03059000  1.0
  C  C254  1  0.92528000  0.07693000  0.05920000  1.0
  C  C255  1  0.89470000  0.06241000  0.08891000  1.0
  Co  Co256  1  0.54084000  0.95838000  0.82054000  1.0
  Co  Co257  1  0.57940000  0.87789000  0.83159000  1.0
  Co  Co258  1  0.31162000  0.31414000  0.93154000  1.0
  Co  Co259  1  0.34510000  0.32906000  0.01208000  1.0
  Co  Co260  1  0.05522000  0.43490000  0.57084000  1.0
  Co  Co261  1  0.08656000  0.51650000  0.56139000  1.0
  Co  Co262  1  0.77322000  0.06677000  0.44792000  1.0
  Co  Co263  1  0.81946000  0.05767000  0.36849000  1.0
  Co  Co264  1  0.84696000  0.43485000  0.80264000  1.0
  Co  Co265  1  0.83688000  0.51770000  0.81037000  1.0
  Co  Co266  1  0.63870000  0.30927000  0.44760000  1.0
  Co  Co267  1  0.60404000  0.32002000  0.36665000  1.0
  Co  Co268  1  0.42378000  0.94145000  0.56520000  1.0
  Co  Co269  1  0.36450000  0.86439000  0.56814000  1.0
  Co  Co270  1  0.17694000  0.06852000  0.95157000  1.0
  Co  Co271  1  0.11916000  0.06953000  0.02909000  1.0
  Co  Co272  1  0.05102000  0.45043000  0.30992000  1.0
  Co  Co273  1  0.08668000  0.36943000  0.31962000  1.0
  Co  Co274  1  0.83324000  0.80178000  0.43243000  1.0
  Co  Co275  1  0.84668000  0.81091000  0.51493000  1.0
  Co  Co276  1  0.59206000  0.93659000  0.08757000  1.0
  Co  Co277  1  0.60050000  0.01953000  0.07941000  1.0
  Co  Co278  1  0.26028000  0.56765000  0.93873000  1.0
  Co  Co279  1  0.31884000  0.56925000  0.86142000  1.0
  Co  Co280  1  0.36252000  0.92653000  0.30905000  1.0
  Co  Co281  1  0.33764000  0.00816000  0.32340000  1.0
  Co  Co282  1  0.13148000  0.81525000  0.95817000  1.0
  Co  Co283  1  0.09680000  0.82975000  0.87773000  1.0
  Co  Co284  1  0.90196000  0.45655000  0.06947000  1.0
  Co  Co285  1  0.86272000  0.37609000  0.05889000  1.0
  Co  Co286  1  0.63496000  0.57094000  0.43407000  1.0
  Co  Co287  1  0.60350000  0.56101000  0.51561000  1.0
  H  H288  1  0.35252000  0.84815000  0.67933000  1.0
  H  H289  1  0.56496000  0.83939000  0.66142000  1.0
  H  H290  1  0.58554000  0.84364000  0.72409000  1.0
  H  H291  1  0.37320000  0.85299000  0.74195000  1.0
  H  H292  1  0.32462000  0.15960000  0.05619000  1.0
  H  H293  1  0.11328000  0.18016000  0.04606000  1.0
  H  H294  1  0.13722000  0.24227000  0.03949000  1.0
  H  H295  1  0.34844000  0.22182000  0.05014000  1.0
  H  H296  1  0.06592000  0.56223000  0.67022000  1.0
  H  H297  1  0.87058000  0.52381000  0.64171000  1.0
  H  H298  1  0.82932000  0.53624000  0.69987000  1.0
  H  H299  1  0.02432000  0.57489000  0.72912000  1.0
  H  H300  1  0.82882000  0.16630000  0.34101000  1.0
  H  H301  1  0.61590000  0.14811000  0.33836000  1.0
  H  H302  1  0.59566000  0.21097000  0.33833000  1.0
  H  H303  1  0.80854000  0.22913000  0.34160000  1.0
  H  H304  1  0.09256000  0.34546000  0.20980000  1.0
  H  H305  1  0.88034000  0.34328000  0.23001000  1.0
  H  H306  1  0.85776000  0.34516000  0.16741000  1.0
  H  H307  1  0.07000000  0.34801000  0.14720000  1.0
  H  H308  1  0.81842000  0.64228000  0.52335000  1.0
  H  H309  1  0.62222000  0.66978000  0.56130000  1.0
  H  H310  1  0.66232000  0.72903000  0.57359000  1.0
  H  H311  1  0.85822000  0.70081000  0.53541000  1.0
  H  H312  1  0.59906000  0.03529000  0.18999000  1.0
  H  H313  1  0.40638000  0.07435000  0.15722000  1.0
  H  H314  1  0.35890000  0.05809000  0.21401000  1.0
  H  H315  1  0.55176000  0.01914000  0.24601000  1.0
  H  H316  1  0.32656000  0.67988000  0.84410000  1.0
  H  H317  1  0.11472000  0.66029000  0.83492000  1.0
  H  H318  1  0.09214000  0.72268000  0.84044000  1.0
  H  H319  1  0.30388000  0.74216000  0.85014000  1.0
  H  H320  1  0.61974000  0.99995000  0.90850000  1.0
  H  H321  1  0.65788000  0.89169000  0.93273000  1.0
  H  H322  1  0.66673333  0.90647000  0.99403000  1.0
  H  H323  1  0.62760000  0.01464000  0.96990000  1.0
  H  H324  1  0.37806000  0.46198000  0.87036000  1.0
  H  H325  1  0.39128000  0.49306000  0.97837000  1.0
  H  H326  1  0.40364000  0.43259000  0.99568000  1.0
  H  H327  1  0.39168000  0.40143000  0.88755000  1.0
  H  H328  1  0.15398000  0.39717000  0.48491000  1.0
  H  H329  1  0.14698000  0.50621000  0.45675000  1.0
  H  H330  1  0.14590000  0.49019000  0.39558000  1.0
  H  H331  1  0.15150000  0.38112000  0.42374000  1.0
  H  H332  1  0.85962000  0.98199000  0.49147000  1.0
  H  H333  1  0.89540000  0.95561000  0.38350000  1.0
  H  H334  1  0.90580000  0.89468000  0.39960000  1.0
  H  H335  1  0.86880000  0.92096000  0.50746000  1.0
  H  H336  1  0.81366000  0.51275000  0.92034000  1.0
  H  H337  1  0.77386000  0.40461000  0.89643000  1.0
  H  H338  1  0.78364000  0.38982000  0.95771000  1.0
  H  H339  1  0.82238000  0.49806000  0.98172000  1.0
  H  H340  1  0.53652000  0.48501000  0.39593000  1.0
  H  H341  1  0.54506000  0.45606000  0.50472000  1.0
  H  H342  1  0.54618000  0.39500000  0.48825000  1.0
  H  H343  1  0.53898000  0.42397000  0.37941000  1.0
  H  H344  1  0.29712000  0.98014000  0.48865000  1.0
  H  H345  1  0.30402000  0.87105000  0.46094000  1.0
  H  H346  1  0.28870000  0.88649000  0.40003000  1.0
  H  H347  1  0.28312000  0.99567000  0.42781000  1.0
  H  H348  1  0.03646000  0.93315000  0.89427000  1.0
  H  H349  1  0.04888000  0.90176000  0.00232000  1.0
  H  H350  1  0.06054000  0.96235000  0.01970000  1.0
  H  H351  1  0.04682000  0.99367000  0.91176000  1.0
  H  H352  1  0.22948000  0.91137000  0.87142000  1.0
  H  H353  1  0.34240000  0.83945000  0.93482000  1.0
  H  H354  1  0.44644000  0.86323000  0.91097000  1.0
  H  H355  1  0.33354000  0.93567000  0.84809000  1.0
  H  H356  1  0.21172000  0.41126000  0.01581000  1.0
  H  H357  1  0.09938000  0.33611000  0.95602000  1.0
  H  H358  1  0.99532000  0.35943000  0.98027000  1.0
  H  H359  1  0.10762000  0.43508000  0.03957000  1.0
  H  H360  1  0.84670000  0.54874000  0.45638000  1.0
  H  H361  1  0.73838000  0.47908000  0.52431000  1.0
  H  H362  1  0.84412000  0.45613000  0.54703000  1.0
  H  H363  1  0.95242000  0.52641000  0.47971000  1.0
  H  H364  1  0.47590000  0.99732000  0.40837000  1.0
  H  H365  1  0.58132000  0.95984000  0.31777000  1.0
  H  H366  1  0.68434000  0.98651000  0.33943000  1.0
  H  H367  1  0.57902000  0.02370000  0.43049000  1.0
  H  H368  1  0.10178000  0.49653000  0.91445000  1.0
  H  H369  1  0.16268000  0.52752000  0.81069000  1.0
  H  H370  1  0.06182000  0.50193000  0.78687000  1.0
  H  H371  1  0.00028000  0.47020000  0.88974000  1.0
  H  H372  1  0.84900000  0.33388000  0.42457000  1.0
  H  H373  1  0.73678000  0.40091000  0.35570000  1.0
  H  H374  1  0.84118000  0.42554000  0.33303000  1.0
  H  H375  1  0.95344000  0.35784000  0.40121000  1.0
  H  H376  1  0.52276000  0.81247000  0.53022000  1.0
  H  H377  1  0.58032000  0.91474000  0.49315000  1.0
  H  H378  1  0.68060000  0.88904000  0.46642000  1.0
  H  H379  1  0.62224000  0.78769000  0.50415000  1.0
  H  H380  1  0.27322000  0.02512000  0.07906000  1.0
  H  H381  1  0.33808000  0.99906000  0.97462000  1.0
  H  H382  1  0.44008000  0.97298000  0.99897000  1.0
  H  H383  1  0.37468000  0.99979000  0.10258000  1.0
  H  H384  1  0.88790000  0.79126000  0.87407000  1.0
  H  H385  1  0.91002000  0.87357000  0.79805000  1.0
  H  H386  1  0.78878000  0.87846000  0.79345000  1.0
  H  H387  1  0.76670000  0.79568000  0.86897000  1.0
  H  H388  1  0.53188000  0.37373000  0.09158000  1.0
  H  H389  1  0.55350000  0.29004000  0.01706000  1.0
  H  H390  1  0.67468000  0.29388000  0.02261000  1.0
  H  H391  1  0.65314000  0.37803000  0.09663000  1.0
  H  H392  1  0.27504000  0.59862000  0.52331000  1.0
  H  H393  1  0.29382000  0.51864000  0.60200000  1.0
  H  H394  1  0.41524000  0.52259000  0.59785000  1.0
  H  H395  1  0.39644000  0.60208000  0.51866000  1.0
  H  H396  1  0.15204000  0.08594000  0.37377000  1.0
  H  H397  1  0.13134000  0.02018000  0.28301000  1.0
  H  H398  1  0.01036000  0.02695000  0.28581000  1.0
  H  H399  1  0.03076000  0.09219000  0.37700000  1.0
  H  H400  1  0.53118000  0.59562000  0.88379000  1.0
  H  H401  1  0.51366000  0.55436000  0.77936000  1.0
  H  H402  1  0.63280000  0.54218000  0.77843000  1.0
  H  H403  1  0.65166000  0.58407000  0.88244000  1.0
  H  H404  1  0.29664000  0.36838000  0.28170000  1.0
  H  H405  1  0.27272000  0.28760000  0.35920000  1.0
  H  H406  1  0.39382000  0.28259000  0.36448000  1.0
  H  H407  1  0.41776000  0.36288000  0.28648000  1.0
  H  H408  1  0.17104000  0.78236000  0.55134000  1.0
  H  H409  1  0.15074000  0.88672000  0.59243000  1.0
  H  H410  1  0.03052000  0.88475000  0.58019000  1.0
  H  H411  1  0.05220000  0.78081000  0.53848000  1.0
  H  H412  1  0.80454000  0.04376000  0.11245000  1.0
  H  H413  1  0.78646000  0.08652000  0.00875000  1.0
  H  H414  1  0.90722000  0.09716000  0.00734000  1.0
  H  H415  1  0.92404000  0.05503000  0.11146000  1.0
  O  O416  1  0.66738000  0.87125000  0.81827000  1.0
  O  O417  1  0.54986000  0.85472000  0.79066000  1.0
  O  O418  1  0.59500000  0.96009000  0.85948000  1.0
  O  O419  1  0.60928000  0.90079000  0.87212000  1.0
  O  O420  1  0.57566000  0.91759000  0.80717000  1.0
  O  O421  1  0.65708000  0.82161000  0.84945000  1.0
  O  O422  1  0.45284000  0.88615000  0.78562000  1.0
  O  O423  1  0.49338000  0.88112000  0.84820000  1.0
  O  O424  1  0.47126000  0.94064000  0.84785000  1.0
  O  O425  1  0.43298000  0.31659000  0.02057000  1.0
  O  O426  1  0.31490000  0.28898000  0.03654000  1.0
  O  O427  1  0.36336000  0.35395000  0.92906000  1.0
  O  O428  1  0.37498000  0.36885000  0.98799000  1.0
  O  O429  1  0.34444000  0.30296000  0.97342000  1.0
  O  O430  1  0.42208000  0.35235000  0.06701000  1.0
  O  O431  1  0.22040000  0.28213000  0.00341000  1.0
  O  O432  1  0.25904000  0.34500000  0.00672000  1.0
  O  O433  1  0.23936000  0.34094000  0.94706000  1.0
  O  O434  1  0.17338000  0.52512000  0.57592000  1.0
  O  O435  1  0.05166000  0.53806000  0.60220000  1.0
  O  O436  1  0.10854000  0.43538000  0.53157000  1.0
  O  O437  1  0.12036000  0.49525000  0.52073000  1.0
  O  O438  1  0.08696000  0.47615000  0.58483000  1.0
  O  O439  1  0.16442000  0.57324000  0.54230000  1.0
  O  O440  1  0.96882000  0.49730000  0.60786000  1.0
  O  O441  1  0.00146000  0.51127000  0.54374000  1.0
  O  O442  1  0.98324000  0.45141000  0.54437000  1.0
  O  O443  1  0.90800000  0.07123000  0.36444000  1.0
  O  O444  1  0.79196000  0.09912000  0.34542000  1.0
  O  O445  1  0.83170000  0.02970000  0.45074000  1.0
  O  O446  1  0.84754000  0.01675000  0.39164000  1.0
  O  O447  1  0.81112000  0.08142000  0.40836000  1.0
  O  O448  1  0.90026000  0.04420000  0.31235000  1.0
  O  O449  1  0.69006000  0.10235000  0.37266000  1.0
  O  O450  1  0.73328000  0.04085000  0.36905000  1.0
  O  O451  1  0.70894000  0.03735000  0.42811000  1.0
  O  O452  1  0.74686000  0.52943000  0.80823000  1.0
  O  O453  1  0.85058000  0.53609000  0.76563000  1.0
  O  O454  1  0.80308000  0.43975000  0.84458000  1.0
  O  O455  1  0.82344000  0.49872000  0.85539000  1.0
  O  O456  1  0.81978000  0.47721000  0.78906000  1.0
  O  O457  1  0.76394000  0.56700000  0.85311000  1.0
  O  O458  1  0.94118000  0.56903000  0.78071000  1.0
  O  O459  1  0.92686000  0.50792000  0.81321000  1.0
  O  O460  1  0.92726000  0.44848000  0.82391000  1.0
  O  O461  1  0.51578000  0.30752000  0.35922000  1.0
  O  O462  1  0.63306000  0.27850000  0.34420000  1.0
  O  O463  1  0.58390000  0.34801000  0.44849000  1.0
  O  O464  1  0.57456000  0.36101000  0.38901000  1.0
  O  O465  1  0.60560000  0.29578000  0.40649000  1.0
  O  O466  1  0.52692000  0.34127000  0.31133000  1.0
  O  O467  1  0.73042000  0.27377000  0.37544000  1.0
  O  O468  1  0.69048000  0.33594000  0.37072000  1.0
  O  O469  1  0.70896000  0.33664000  0.43058000  1.0
  O  O470  1  0.27576000  0.86612000  0.58180000  1.0
  O  O471  1  0.38898000  0.84574000  0.61218000  1.0
  O  O472  1  0.35842000  0.94292000  0.53142000  1.0
  O  O473  1  0.33872000  0.88323000  0.52454000  1.0
  O  O474  1  0.38074000  0.90646000  0.58629000  1.0
  O  O475  1  0.28006000  0.80924000  0.56747000  1.0
  O  O476  1  0.49378000  0.87004000  0.61233000  1.0
  O  O477  1  0.45038000  0.85879000  0.55191000  1.0
  O  O478  1  0.47866000  0.91485000  0.53563000  1.0
  O  O479  1  0.03114000  0.08456000  0.02805000  1.0
  O  O480  1  0.14628000  0.11269000  0.04880000  1.0
  O  O481  1  0.11120000  0.03496000  0.94964000  1.0
  O  O482  1  0.09108000  0.02686000  0.00916000  1.0
  O  O483  1  0.13556000  0.08878000  0.98752000  1.0
  O  O484  1  0.03446000  0.06892000  0.08463000  1.0
  O  O485  1  0.25158000  0.11152000  0.02510000  1.0
  O  O486  1  0.20418000  0.05179000  0.03379000  1.0
  O  O487  1  0.23230000  0.03817000  0.97693000  1.0
  O  O488  1  0.17468000  0.36226000  0.30646000  1.0
  O  O489  1  0.05680000  0.34752000  0.27797000  1.0
  O  O490  1  0.10574000  0.45093000  0.34868000  1.0
  O  O491  1  0.11700000  0.39132000  0.36069000  1.0
  O  O492  1  0.08436000  0.40956000  0.29588000  1.0
  O  O493  1  0.16364000  0.31338000  0.33875000  1.0
  O  O494  1  0.95816000  0.37786000  0.27470000  1.0
  O  O495  1  0.00068000  0.37315000  0.33623000  1.0
  O  O496  1  0.98076000  0.43289000  0.33696000  1.0
  O  O497  1  0.93710000  0.80957000  0.52589000  1.0
  O  O498  1  0.83474000  0.76641000  0.53424000  1.0
  O  O499  1  0.87778000  0.84363000  0.43608000  1.0
  O  O500  1  0.85856000  0.85566000  0.49492000  1.0
  O  O501  1  0.86260000  0.78897000  0.47465000  1.0
  O  O502  1  0.91914000  0.85463000  0.56312000  1.0
  O  O503  1  0.74422000  0.78113000  0.56742000  1.0
  O  O504  1  0.75632000  0.81299000  0.50604000  1.0
  O  O505  1  0.75382000  0.82360000  0.44667000  1.0
  O  O506  1  0.69020000  0.03179000  0.08256000  1.0
  O  O507  1  0.58428000  0.03784000  0.12393000  1.0
  O  O508  1  0.63604000  0.94157000  0.04566000  1.0
  O  O509  1  0.61624000  0.00059000  0.03465000  1.0
  O  O510  1  0.61776000  0.97922000  0.10104000  1.0
  O  O511  1  0.67406000  0.06925000  0.03749000  1.0
  O  O512  1  0.49388000  0.07027000  0.10759000  1.0
  O  O513  1  0.51090000  0.00920000  0.07543000  1.0
  O  O514  1  0.51150000  0.94947000  0.06617000  1.0
  O  O515  1  0.40700000  0.58397000  0.86280000  1.0
  O  O516  1  0.29246000  0.61263000  0.84191000  1.0
  O  O517  1  0.32616000  0.53417000  0.94064000  1.0
  O  O518  1  0.34634000  0.52636000  0.88110000  1.0
  O  O519  1  0.30216000  0.58821000  0.90308000  1.0
  O  O520  1  0.40360000  0.56910000  0.80603000  1.0
  O  O521  1  0.18714000  0.61179000  0.86559000  1.0
  O  O522  1  0.23366000  0.55188000  0.85634000  1.0
  O  O523  1  0.20536000  0.53741000  0.91295000  1.0
  O  O524  1  0.25054000  0.01936000  0.31128000  1.0
  O  O525  1  0.37134000  0.03123000  0.28314000  1.0
  O  O526  1  0.31738000  0.92610000  0.35106000  1.0
  O  O527  1  0.30578000  0.98564000  0.36370000  1.0
  O  O528  1  0.33170000  0.96898000  0.29821000  1.0
  O  O529  1  0.26206000  0.06237000  0.35112000  1.0
  O  O530  1  0.44748000  0.98802000  0.27233000  1.0
  O  O531  1  0.42344000  0.00026000  0.33878000  1.0
  O  O532  1  0.44020000  0.94058000  0.33230000  1.0
  O  O533  1  0.00882000  0.81720000  0.86967000  1.0
  O  O534  1  0.12664000  0.78960000  0.85332000  1.0
  O  O535  1  0.07848000  0.85459000  0.96074000  1.0
  O  O536  1  0.06706000  0.86959000  0.90183000  1.0
  O  O537  1  0.09828000  0.80377000  0.91646000  1.0
  O  O538  1  0.01968000  0.85212000  0.82261000  1.0
  O  O539  1  0.22210000  0.78309000  0.88576000  1.0
  O  O540  1  0.18288000  0.84578000  0.88263000  1.0
  O  O541  1  0.20272000  0.84261000  0.94232000  1.0
  O  O542  1  0.77478000  0.36977000  0.07244000  1.0
  O  O543  1  0.89238000  0.35301000  0.09993000  1.0
  O  O544  1  0.84710000  0.45824000  0.03080000  1.0
  O  O545  1  0.83268000  0.39893000  0.01830000  1.0
  O  O546  1  0.86718000  0.41585000  0.08316000  1.0
  O  O547  1  0.78448000  0.31977000  0.04182000  1.0
  O  O548  1  0.99132000  0.38295000  0.10391000  1.0
  O  O549  1  0.94858000  0.37907000  0.04201000  1.0
  O  O550  1  0.97084000  0.43857000  0.04184000  1.0
  O  O551  1  0.51658000  0.57533000  0.52431000  1.0
  O  O552  1  0.63798000  0.60183000  0.53733000  1.0
  O  O553  1  0.58236000  0.53141000  0.43435000  1.0
  O  O554  1  0.57006000  0.52036000  0.49417000  1.0
  O  O555  1  0.60292000  0.58462000  0.47536000  1.0
  O  O556  1  0.52580000  0.54146000  0.57225000  1.0
  O  O557  1  0.72100000  0.60783000  0.49672000  1.0
  O  O558  1  0.68874000  0.54356000  0.51032000  1.0
  O  O559  1  0.70740000  0.54478000  0.45051000  1.0
