# generated using pymatgen
data_Co16H95C128(NO4)16
_symmetry_space_group_name_H-M   'P 1'
_cell_length_a   20.32915000
_cell_length_b   20.32915000
_cell_length_c   28.07820000
_cell_angle_alpha   90.00000000
_cell_angle_beta   90.00000000
_cell_angle_gamma   90.00000000
_symmetry_Int_Tables_number   1
_chemical_formula_structural   Co16H95C128(NO4)16
_chemical_formula_sum   'Co16 H95 C128 N16 O64'
_cell_volume   11603.99956560
_cell_formula_units_Z   1
loop_
 _symmetry_equiv_pos_site_id
 _symmetry_equiv_pos_as_xyz
  1  'x, y, z'
loop_
 _atom_site_type_symbol
 _atom_site_label
 _atom_site_symmetry_multiplicity
 _atom_site_fract_x
 _atom_site_fract_y
 _atom_site_fract_z
 _atom_site_occupancy
  C  C0  1  0.98242000  0.15984000  0.61174000  1.0
  C  C1  1  0.11390000  0.20590000  0.55891000  1.0
  C  C2  1  0.05878000  0.37980000  0.63049000  1.0
  C  C3  1  0.16408000  0.20364000  0.68307000  1.0
  C  C4  1  0.22070000  0.12658000  0.41457000  1.0
  C  C5  1  0.22174000  0.97288000  0.46665000  1.0
  C  C6  1  0.40920000  0.06254000  0.44517000  1.0
  C  C7  1  0.23430000  0.94574000  0.33917000  1.0
  C  C8  1  0.12248000  0.82978000  0.59339000  1.0
  C  C9  1  0.96326000  0.84384000  0.55398000  1.0
  C  C10  1  0.05222000  0.62768000  0.61925000  1.0
  C  C11  1  0.95318000  0.82694000  0.68424000  1.0
  C  C12  1  0.83556000  0.96390000  0.42599000  1.0
  C  C13  1  0.89586000  0.11354000  0.44702000  1.0
  C  C14  1  0.65216000  0.07008000  0.41276000  1.0
  C  C15  1  0.84372000  0.11706000  0.32221000  1.0
  C  C16  1  0.10984000  0.20398000  0.09045000  1.0
  C  C17  1  0.95314000  0.19336000  0.04334000  1.0
  C  C18  1  0.05144000  0.40304000  0.11729000  1.0
  C  C19  1  0.93320000  0.20724000  0.17053000  1.0
  C  C20  1  0.18876000  0.94134000  0.91112000  1.0
  C  C21  1  0.21722000  0.08322000  0.95942000  1.0
  C  C22  1  0.39020000  0.96622000  0.93748000  1.0
  C  C23  1  0.24332000  0.11438000  0.83318000  1.0
  C  C24  1  0.96530000  0.81430000  0.10754000  1.0
  C  C25  1  0.09378000  0.89432000  0.07457000  1.0
  C  C26  1  0.09730000  0.64510000  0.12128000  1.0
  C  C27  1  0.13614000  0.84194000  0.19534000  1.0
  C  C28  1  0.81800000  0.07648000  0.92020000  1.0
  C  C29  1  0.85408000  0.92940000  0.97045000  1.0
  C  C30  1  0.63280000  0.97520000  0.90212000  1.0
  C  C31  1  0.85464000  0.90248000  0.83929000  1.0
  C  C32  1  0.95472000  0.55834000  0.60136000  1.0
  C  C33  1  0.05680000  0.50364000  0.62309000  1.0
  C  C34  1  0.02160000  0.56208000  0.61404000  1.0
  C  C35  1  0.02464000  0.44248000  0.62064000  1.0
  C  C36  1  0.95752000  0.44020000  0.60842000  1.0
  C  C37  1  0.92238000  0.49776000  0.59850000  1.0
  C  C38  1  0.59364000  0.16354000  0.45100000  1.0
  C  C39  1  0.53004000  0.06822000  0.42595000  1.0
  C  C40  1  0.59092000  0.10114000  0.42958000  1.0
  C  C41  1  0.47326000  0.09650000  0.44544000  1.0
  C  C42  1  0.47708000  0.15880000  0.46706000  1.0
  C  C43  1  0.53688000  0.19292000  0.46957000  1.0
  C  C44  1  0.05616000  0.46950000  0.04274000  1.0
  C  C45  1  0.07892000  0.52330000  0.11796000  1.0
  C  C46  1  0.06066000  0.46660000  0.09258000  1.0
  C  C47  1  0.09144000  0.58294000  0.09401000  1.0
  C  C48  1  0.08870000  0.58430000  0.04401000  1.0
  C  C49  1  0.07098000  0.52782000  0.01812000  1.0
  C  C50  1  0.46600000  0.87810000  0.96305000  1.0
  C  C51  1  0.51070000  0.96922000  0.91737000  1.0
  C  C52  1  0.45684000  0.93810000  0.93915000  1.0
  C  C53  1  0.57378000  0.94084000  0.92031000  1.0
  C  C54  1  0.58156000  0.87994000  0.94360000  1.0
  C  C55  1  0.52798000  0.84834000  0.96502000  1.0
  C  C56  1  0.11962000  0.19596000  0.40883000  1.0
  C  C57  1  0.17388000  0.18140000  0.48480000  1.0
  C  C58  1  0.17080000  0.16916000  0.43597000  1.0
  C  C59  1  0.12400000  0.21686000  0.50767000  1.0
  C  C60  1  0.07416000  0.24606000  0.48023000  1.0
  C  C61  1  0.07176000  0.23606000  0.43060000  1.0
  C  C62  1  0.26064000  0.97684000  0.55064000  1.0
  C  C63  1  0.18308000  0.89126000  0.52886000  1.0
  C  C64  1  0.22406000  0.94420000  0.51535000  1.0
  C  C65  1  0.17396000  0.87608000  0.57745000  1.0
  C  C66  1  0.20944000  0.91078000  0.61206000  1.0
  C  C67  1  0.25410000  0.96016000  0.59892000  1.0
  C  C68  1  0.89644000  0.86160000  0.40925000  1.0
  C  C69  1  0.89316000  0.90072000  0.49106000  1.0
  C  C70  1  0.87530000  0.90794000  0.44274000  1.0
  C  C71  1  0.93302000  0.84744000  0.50558000  1.0
  C  C72  1  0.95130000  0.80006000  0.47135000  1.0
  C  C73  1  0.93340000  0.80684000  0.42332000  1.0
  C  C74  1  0.97706000  0.04384000  0.48636000  1.0
  C  C75  1  0.93234000  0.13506000  0.53164000  1.0
  C  C76  1  0.93600000  0.09892000  0.48904000  1.0
  C  C77  1  0.96940000  0.11480000  0.57160000  1.0
  C  C78  1  0.00484000  0.05584000  0.56926000  1.0
  C  C79  1  0.01116000  0.02192000  0.52628000  1.0
  C  C80  1  0.86930000  0.18420000  0.90332000  1.0
  C  C81  1  0.87506000  0.14164000  0.98396000  1.0
  C  C82  1  0.85318000  0.13558000  0.93662000  1.0
  C  C83  1  0.91732000  0.19368000  0.99711000  1.0
  C  C84  1  0.93120000  0.24310000  0.96348000  1.0
  C  C85  1  0.90698000  0.23904000  0.91673000  1.0
  C  C86  1  0.25118000  0.06344000  0.04352000  1.0
  C  C87  1  0.17398000  0.15096000  0.02607000  1.0
  C  C88  1  0.21806000  0.10264000  0.01000000  1.0
  C  C89  1  0.15944000  0.15674000  0.07451000  1.0
  C  C90  1  0.19074000  0.11574000  0.10759000  1.0
  C  C91  1  0.23786000  0.06970000  0.09244000  1.0
  C  C92  1  0.05050000  0.97488000  0.01751000  1.0
  C  C93  1  0.14104000  0.90658000  0.99063000  1.0
  C  C94  1  0.09724000  0.92562000  0.02713000  1.0
  C  C95  1  0.13296000  0.93306000  0.94435000  1.0
  C  C96  1  0.07652000  0.97000000  0.93431000  1.0
  C  C97  1  0.04106000  0.99818000  0.97145000  1.0
  C  C98  1  0.80954000  0.93308000  0.05301000  1.0
  C  C99  1  0.90798000  0.86866000  0.03907000  1.0
  C  C100  1  0.85682000  0.90812000  0.02108000  1.0
  C  C101  1  0.91214000  0.85550000  0.08835000  1.0
  C  C102  1  0.86602000  0.88272000  0.11960000  1.0
  C  C103  1  0.81396000  0.92104000  0.10215000  1.0
  C  C104  1  0.26768000  0.25236000  0.71888000  1.0
  C  C105  1  0.20796000  0.16624000  0.75887000  1.0
  C  C106  1  0.21268000  0.21114000  0.72154000  1.0
  C  C107  1  0.25682000  0.16064000  0.79380000  1.0
  C  C108  1  0.31250000  0.20098000  0.79095000  1.0
  C  C109  1  0.31802000  0.24766000  0.75364000  1.0
  C  C110  1  0.24852000  0.80568000  0.22447000  1.0
  C  C111  1  0.18878000  0.88888000  0.26802000  1.0
  C  C112  1  0.19194000  0.84452000  0.22969000  1.0
  C  C113  1  0.24104000  0.89646000  0.30035000  1.0
  C  C114  1  0.29790000  0.85850000  0.29401000  1.0
  C  C115  1  0.30182000  0.81246000  0.25643000  1.0
  C  C116  1  0.86336000  0.76260000  0.72442000  1.0
  C  C117  1  0.90274000  0.86224000  0.76215000  1.0
  C  C118  1  0.90564000  0.81720000  0.72399000  1.0
  C  C119  1  0.85770000  0.85372000  0.79990000  1.0
  C  C120  1  0.81482000  0.79966000  0.79893000  1.0
  C  C121  1  0.81768000  0.75362000  0.76153000  1.0
  C  C122  1  0.79582000  0.22058000  0.28643000  1.0
  C  C123  1  0.88282000  0.16356000  0.24478000  1.0
  C  C124  1  0.83952000  0.16716000  0.28366000  1.0
  C  C125  1  0.88464000  0.21288000  0.20969000  1.0
  C  C126  1  0.84172000  0.26654000  0.21345000  1.0
  C  C127  1  0.79656000  0.27040000  0.25144000  1.0
  Co  Co128  1  0.03784000  0.24060000  0.64348000  1.0
  Co  Co129  1  0.10428000  0.09892000  0.62643000  1.0
  Co  Co130  1  0.29152000  0.05098000  0.39456000  1.0
  Co  Co131  1  0.13574000  0.02216000  0.39211000  1.0
  Co  Co132  1  0.04374000  0.76552000  0.61788000  1.0
  Co  Co133  1  0.02766000  0.92098000  0.62766000  1.0
  Co  Co134  1  0.78468000  0.05320000  0.40377000  1.0
  Co  Co135  1  0.93266000  0.03078000  0.37129000  1.0
  Co  Co136  1  0.03096000  0.26954000  0.11108000  1.0
  Co  Co137  1  0.01332000  0.11288000  0.11721000  1.0
  Co  Co138  1  0.27534000  0.99716000  0.88689000  1.0
  Co  Co139  1  0.12934000  0.05744000  0.88092000  1.0
  Co  Co140  1  0.06110000  0.77246000  0.12356000  1.0
  Co  Co141  1  0.02056000  0.91544000  0.16233000  1.0
  Co  Co142  1  0.77096000  0.98576000  0.89706000  1.0
  Co  Co143  1  0.92746000  0.99702000  0.89647000  1.0
  H  H144  1  0.93238000  0.39330000  0.60598000  1.0
  H  H145  1  0.92670000  0.60266000  0.59430000  1.0
  H  H146  1  0.10834000  0.50570000  0.63283000  1.0
  H  H147  1  0.82834000  0.52330000  0.60966000  1.0
  H  H148  1  0.83660000  0.44842000  0.58462000  1.0
  H  H149  1  0.84728000  0.51980000  0.55484000  1.0
  H  H150  1  0.43314000  0.18128000  0.48172000  1.0
  H  H151  1  0.63998000  0.18968000  0.45360000  1.0
  H  H152  1  0.52712000  0.01994000  0.40971000  1.0
  H  H153  1  0.57476000  0.25546000  0.51756000  1.0
  H  H154  1  0.49602000  0.27248000  0.50315000  1.0
  H  H155  1  0.56070000  0.28864000  0.46735000  1.0
  H  H156  1  0.09786000  0.62988000  0.02510000  1.0
  H  H157  1  0.04298000  0.42588000  0.02265000  1.0
  H  H158  1  0.08144000  0.52130000  0.15650000  1.0
  H  H159  1  0.09568000  0.49274000  0.95374000  1.0
  H  H160  1  0.07930000  0.57416000  0.95363000  1.0
  H  H161  1  0.02104000  0.51530000  0.95719000  1.0
  H  H162  1  0.62966000  0.85720000  0.94601000  1.0
  H  H163  1  0.42460000  0.85350000  0.97965000  1.0
  H  H164  1  0.50376000  0.01594000  0.89947000  1.0
  H  H165  1  0.51934000  0.79144000  0.02308000  1.0
  H  H166  1  0.58334000  0.77032000  0.98801000  1.0
  H  H167  1  0.50410000  0.75354000  0.97487000  1.0
  H  H168  1  0.03440000  0.27236000  0.49755000  1.0
  H  H169  1  0.11732000  0.18610000  0.37093000  1.0
  H  H170  1  0.21220000  0.15808000  0.50579000  1.0
  H  H171  1  0.01650000  0.31280000  0.41000000  1.0
  H  H172  1  0.97570000  0.24676000  0.41668000  1.0
  H  H173  1  0.02344000  0.25364000  0.36793000  1.0
  H  H174  1  0.20186000  0.89966000  0.64944000  1.0
  H  H175  1  0.29164000  0.01808000  0.54124000  1.0
  H  H176  1  0.15406000  0.86592000  0.50219000  1.0
  H  H177  1  0.33836000  0.99756000  0.62490000  1.0
  H  H178  1  0.28312000  0.97748000  0.66761000  1.0
  H  H179  1  0.27630000  0.04412000  0.63255000  1.0
  H  H180  1  0.98198000  0.75876000  0.48143000  1.0
  H  H181  1  0.88324000  0.86738000  0.37205000  1.0
  H  H182  1  0.87844000  0.93780000  0.51666000  1.0
  H  H183  1  0.91398000  0.74446000  0.36960000  1.0
  H  H184  1  0.97866000  0.72110000  0.40342000  1.0
  H  H185  1  0.98158000  0.78286000  0.36356000  1.0
  H  H186  1  0.03030000  0.03750000  0.60034000  1.0
  H  H187  1  0.98098000  0.01634000  0.45338000  1.0
  H  H188  1  0.90338000  0.17976000  0.53288000  1.0
  H  H189  1  0.07570000  0.95320000  0.55391000  1.0
  H  H190  1  0.96320000  0.28378000  0.97274000  1.0
  H  H191  1  0.85268000  0.17926000  0.86680000  1.0
  H  H192  1  0.86324000  0.10332000  0.00942000  1.0
  H  H193  1  0.97306000  0.28896000  0.87829000  1.0
  H  H194  1  0.91464000  0.33402000  0.89729000  1.0
  H  H195  1  0.89976000  0.28244000  0.85116000  1.0
  H  H196  1  0.17876000  0.11994000  0.14510000  1.0
  H  H197  1  0.28414000  0.02498000  0.03180000  1.0
  H  H198  1  0.14742000  0.18112000  0.00063000  1.0
  H  H199  1  0.25496000  0.98006000  0.11894000  1.0
  H  H200  1  0.25922000  0.03948000  0.16023000  1.0
  H  H201  1  0.31868000  0.02580000  0.11908000  1.0
  H  H202  1  0.06542000  0.98444000  0.89813000  1.0
  H  H203  1  0.01910000  0.99424000  0.04541000  1.0
  H  H204  1  0.18232000  0.87480000  0.99873000  1.0
  H  H205  1  0.95508000  0.04352000  0.97907000  1.0
  H  H206  1  0.99574000  0.06586000  0.92844000  1.0
  H  H207  1  0.01688000  0.09184000  0.98250000  1.0
  H  H208  1  0.87002000  0.87324000  0.15750000  1.0
  H  H209  1  0.77006000  0.96422000  0.04013000  1.0
  H  H210  1  0.94502000  0.84938000  0.01507000  1.0
  H  H211  1  0.76624000  0.99842000  0.12978000  1.0
  H  H212  1  0.77418000  0.93542000  0.16835000  1.0
  H  H213  1  0.72042000  0.93590000  0.12246000  1.0
  H  H214  1  0.35038000  0.19724000  0.81796000  1.0
  H  H215  1  0.27266000  0.28628000  0.68932000  1.0
  H  H216  1  0.16558000  0.13370000  0.76001000  1.0
  H  H217  1  0.35926000  0.33702000  0.74757000  1.0
  H  H218  1  0.39672000  0.28146000  0.71842000  1.0
  H  H219  1  0.40618000  0.28270000  0.77802000  1.0
  H  H220  1  0.33888000  0.86392000  0.31838000  1.0
  H  H221  1  0.25178000  0.77110000  0.19519000  1.0
  H  H222  1  0.14514000  0.91884000  0.27237000  1.0
  H  H223  1  0.35668000  0.74198000  0.22274000  1.0
  H  H224  1  0.36914000  0.74950000  0.28194000  1.0
  H  H225  1  0.39938000  0.80408000  0.24789000  1.0
  H  H226  1  0.77972000  0.79284000  0.82756000  1.0
  H  H227  1  0.86500000  0.72718000  0.69558000  1.0
  H  H228  1  0.93548000  0.90432000  0.76238000  1.0
  H  H229  1  0.74946000  0.69764000  0.72951000  1.0
  H  H230  1  0.74380000  0.69700000  0.78947000  1.0
  H  H231  1  0.80218000  0.65626000  0.75857000  1.0
  H  H232  1  0.84270000  0.30506000  0.18677000  1.0
  H  H233  1  0.76206000  0.22430000  0.31617000  1.0
  H  H234  1  0.91690000  0.12272000  0.24244000  1.0
  H  H235  1  0.72776000  0.32954000  0.22317000  1.0
  H  H236  1  0.77958000  0.36734000  0.25549000  1.0
  H  H237  1  0.72160000  0.32176000  0.28291000  1.0
  H  H238  1  0.05424000  0.94066000  0.49251000  1.0
  N  N239  1  0.85756000  0.49530000  0.58670000  1.0
  N  N240  1  0.54020000  0.25340000  0.49004000  1.0
  N  N241  1  0.06730000  0.52942000  0.96980000  1.0
  N  N242  1  0.53576000  0.78986000  0.98782000  1.0
  N  N243  1  0.02182000  0.26220000  0.40462000  1.0
  N  N244  1  0.28816000  0.99408000  0.63256000  1.0
  N  N245  1  0.95290000  0.76182000  0.39042000  1.0
  N  N246  1  0.05046000  0.96846000  0.52367000  1.0
  N  N247  1  0.92244000  0.28640000  0.88445000  1.0
  N  N248  1  0.26788000  0.02926000  0.12428000  1.0
  N  N249  1  0.00114000  0.05040000  0.96371000  1.0
  N  N250  1  0.76868000  0.94718000  0.13232000  1.0
  N  N251  1  0.37164000  0.28730000  0.75063000  1.0
  N  N252  1  0.35694000  0.77540000  0.25103000  1.0
  N  N253  1  0.77670000  0.70078000  0.76099000  1.0
  N  N254  1  0.75472000  0.32238000  0.25443000  1.0
  O  O255  1  0.12976000  0.14634000  0.57371000  1.0
  O  O256  1  0.16272000  0.14376000  0.66489000  1.0
  O  O257  1  0.11766000  0.24884000  0.67680000  1.0
  O  O258  1  0.07972000  0.24936000  0.58401000  1.0
  O  O259  1  0.96174000  0.22210000  0.61079000  1.0
  O  O260  1  0.03604000  0.15372000  0.63885000  1.0
  O  O261  1  0.02238000  0.33074000  0.64602000  1.0
  O  O262  1  0.12020000  0.37058000  0.61761000  1.0
  O  O263  1  0.16424000  0.97454000  0.44497000  1.0
  O  O264  1  0.17286000  0.96174000  0.35039000  1.0
  O  O265  1  0.28774000  0.97406000  0.35759000  1.0
  O  O266  1  0.27506000  0.00264000  0.45038000  1.0
  O  O267  1  0.28358000  0.12862000  0.42763000  1.0
  O  O268  1  0.20782000  0.07424000  0.38793000  1.0
  O  O269  1  0.38268000  0.04268000  0.40450000  1.0
  O  O270  1  0.37142000  0.07114000  0.48255000  1.0
  O  O271  1  0.96602000  0.89732000  0.58063000  1.0
  O  O272  1  0.97496000  0.88746000  0.67645000  1.0
  O  O273  1  0.97190000  0.77480000  0.65913000  1.0
  O  O274  1  0.99378000  0.78882000  0.56512000  1.0
  O  O275  1  0.11744000  0.76714000  0.57910000  1.0
  O  O276  1  0.07596000  0.84530000  0.62481000  1.0
  O  O277  1  0.01820000  0.67968000  0.60643000  1.0
  O  O278  1  0.11002000  0.63488000  0.63952000  1.0
  O  O279  1  0.92616000  0.10860000  0.40590000  1.0
  O  O280  1  0.89404000  0.07532000  0.32060000  1.0
  O  O281  1  0.80040000  0.11860000  0.35778000  1.0
  O  O282  1  0.83328000  0.09768000  0.45050000  1.0
  O  O283  1  0.77952000  0.98390000  0.44639000  1.0
  O  O284  1  0.85180000  0.00192000  0.38932000  1.0
  O  O285  1  0.70952000  0.09638000  0.42310000  1.0
  O  O286  1  0.65036000  0.01442000  0.38900000  1.0
  O  O287  1  0.95966000  0.13684000  0.06605000  1.0
  O  O288  1  0.95340000  0.14662000  0.16073000  1.0
  O  O289  1  0.95650000  0.26162000  0.15004000  1.0
  O  O290  1  0.98178000  0.24852000  0.05703000  1.0
  O  O291  1  0.10666000  0.26612000  0.07521000  1.0
  O  O292  1  0.06042000  0.18860000  0.11913000  1.0
  O  O293  1  0.01366000  0.35744000  0.09833000  1.0
  O  O294  1  0.09144000  0.38686000  0.15210000  1.0
  O  O295  1  0.16066000  0.09166000  0.93735000  1.0
  O  O296  1  0.18088000  0.11364000  0.84591000  1.0
  O  O297  1  0.28840000  0.07152000  0.84795000  1.0
  O  O298  1  0.26766000  0.04974000  0.94186000  1.0
  O  O299  1  0.25016000  0.92496000  0.92286000  1.0
  O  O300  1  0.18896000  0.99088000  0.88005000  1.0
  O  O301  1  0.36620000  0.98990000  0.89726000  1.0
  O  O302  1  0.35088000  0.95566000  0.97375000  1.0
  O  O303  1  0.07014000  0.93282000  0.10855000  1.0
  O  O304  1  0.09500000  0.89240000  0.19674000  1.0
  O  O305  1  0.12974000  0.79092000  0.16617000  1.0
  O  O306  1  0.09708000  0.82914000  0.07726000  1.0
  O  O307  1  0.98950000  0.76260000  0.08420000  1.0
  O  O308  1  0.00414000  0.83230000  0.14341000  1.0
  O  O309  1  0.10634000  0.70130000  0.09885000  1.0
  O  O310  1  0.07352000  0.64716000  0.16478000  1.0
  O  O311  1  0.90936000  0.93836000  0.94665000  1.0
  O  O312  1  0.90946000  0.93468000  0.84959000  1.0
  O  O313  1  0.79728000  0.91306000  0.86068000  1.0
  O  O314  1  0.79610000  0.94670000  0.95395000  1.0
  O  O315  1  0.75562000  0.06206000  0.93128000  1.0
  O  O316  1  0.84468000  0.03104000  0.89220000  1.0
  O  O317  1  0.69014000  0.94606000  0.90661000  1.0
  O  O318  1  0.62954000  0.03596000  0.88637000  1.0
