# generated using pymatgen
data_CoH32C20(N2O)4
_symmetry_space_group_name_H-M   'P 1'
_cell_length_a   27.59030000
_cell_length_b   27.59030000
_cell_length_c   37.82360000
_cell_angle_alpha   90.00000000
_cell_angle_beta   90.00000000
_cell_angle_gamma   90.00000000
_symmetry_Int_Tables_number   1
_chemical_formula_structural   CoH32C20(N2O)4
_chemical_formula_sum   'Co8 H256 C160 N64 O32'
_cell_volume   28792.25682644
_cell_formula_units_Z   8
loop_
 _symmetry_equiv_pos_site_id
 _symmetry_equiv_pos_as_xyz
  1  'x, y, z'
loop_
 _atom_site_type_symbol
 _atom_site_label
 _atom_site_symmetry_multiplicity
 _atom_site_fract_x
 _atom_site_fract_y
 _atom_site_fract_z
 _atom_site_occupancy
  Co  Co0  1  0.06194000  0.24822000  0.57148000  1.0
  Co  Co1  1  0.24799000  0.96418000  0.44168000  1.0
  Co  Co2  1  0.00438000  0.80059000  0.62538000  1.0
  Co  Co3  1  0.81356000  0.03144000  0.44109000  1.0
  Co  Co4  1  0.96161000  0.23731000  0.08667000  1.0
  Co  Co5  1  0.21328000  0.05102000  0.92521000  1.0
  Co  Co6  1  0.03628000  0.80422000  0.09723000  1.0
  Co  Co7  1  0.77008000  0.98433000  0.93918000  1.0
  H  H8  1  0.99944000  0.34339000  0.55642000  1.0
  H  H9  1  0.14729000  0.32488000  0.57905000  1.0
  H  H10  1  0.13059000  0.41873000  0.57137000  1.0
  H  H11  1  0.14649000  0.20409000  0.61795000  1.0
  H  H12  1  0.03454000  0.30091000  0.64408000  1.0
  H  H13  1  0.08951000  0.28744000  0.70139000  1.0
  H  H14  1  0.33227000  0.03720000  0.46467000  1.0
  H  H15  1  0.33670000  0.90340000  0.41192000  1.0
  H  H16  1  0.42627000  0.93609000  0.41697000  1.0
  H  H17  1  0.21135000  0.87565000  0.39519000  1.0
  H  H18  1  0.28422000  0.00362000  0.36694000  1.0
  H  H19  1  0.27217000  0.95025000  0.30883000  1.0
  H  H20  1  0.07080000  0.70942000  0.60991000  1.0
  H  H21  1  0.93946000  0.72161000  0.66517000  1.0
  H  H22  1  0.97028000  0.63039000  0.67038000  1.0
  H  H23  1  0.95785000  0.87509000  0.67938000  1.0
  H  H24  1  0.05407000  0.75926000  0.69540000  1.0
  H  H25  1  0.04102000  0.80434000  0.75698000  1.0
  H  H26  1  0.71600000  0.97246000  0.44993000  1.0
  H  H27  1  0.74618000  0.10140000  0.39559000  1.0
  H  H28  1  0.65542000  0.07584000  0.38147000  1.0
  H  H29  1  0.89302000  0.07951000  0.39236000  1.0
  H  H30  1  0.77992000  0.98327000  0.36805000  1.0
  H  H31  1  0.83094000  0.99943000  0.30922000  1.0
  H  H32  1  0.02856000  0.33067000  0.08489000  1.0
  H  H33  1  0.88386000  0.31175000  0.11529000  1.0
  H  H34  1  0.91065000  0.40064000  0.13278000  1.0
  H  H35  1  0.88195000  0.18719000  0.13511000  1.0
  H  H36  1  0.00300000  0.27242000  0.16080000  1.0
  H  H37  1  0.95513000  0.25295000  0.22013000  1.0
  H  H38  1  0.30648000  0.98473000  0.91913000  1.0
  H  H39  1  0.28881000  0.13427000  0.90325000  1.0
  H  H40  1  0.38002000  0.11093000  0.88765000  1.0
  H  H41  1  0.13838000  0.10523000  0.87557000  1.0
  H  H42  1  0.25169000  0.00903000  0.85194000  1.0
  H  H43  1  0.20514000  0.02950000  0.79222000  1.0
  H  H44  1  0.97742000  0.71753000  0.06387000  1.0
  H  H45  1  0.09222000  0.71774000  0.13664000  1.0
  H  H46  1  0.06863000  0.62643000  0.12346000  1.0
  H  H47  1  0.08695000  0.87354000  0.15175000  1.0
  H  H48  1  0.99150000  0.75729000  0.16764000  1.0
  H  H49  1  0.00770000  0.79976000  0.22982000  1.0
  H  H50  1  0.68080000  0.05276000  0.95806000  1.0
  H  H51  1  0.68653000  0.90694000  0.92664000  1.0
  H  H52  1  0.59492000  0.92917000  0.93953000  1.0
  H  H53  1  0.81058000  0.89898000  0.89152000  1.0
  H  H54  1  0.72404000  0.01928000  0.86597000  1.0
  H  H55  1  0.73711000  0.96675000  0.80745000  1.0
  H  H56  1  0.05568000  0.46283000  0.60478000  1.0
  H  H57  1  0.09965000  0.62783000  0.63288000  1.0
  H  H58  1  0.06195000  0.59616000  0.66365000  1.0
  H  H59  1  0.97675000  0.56599000  0.62663000  1.0
  H  H60  1  0.02130000  0.52607000  0.64576000  1.0
  H  H61  1  0.98181000  0.52572000  0.56929000  1.0
  H  H62  1  0.97069000  0.48209000  0.60375000  1.0
  H  H63  1  0.10952000  0.53216000  0.62008000  1.0
  H  H64  1  0.11937000  0.57674000  0.58592000  1.0
  H  H65  1  0.06492000  0.53432000  0.54510000  1.0
  H  H66  1  0.11231000  0.49537000  0.56042000  1.0
  H  H67  1  0.03975000  0.45449000  0.52796000  1.0
  H  H68  1  0.99074000  0.43424000  0.55430000  1.0
  H  H69  1  0.47356000  0.00397000  0.41146000  1.0
  H  H70  1  0.61879000  0.98356000  0.38409000  1.0
  H  H71  1  0.63814000  0.94805000  0.42107000  1.0
  H  H72  1  0.56865000  0.93260000  0.45496000  1.0
  H  H73  1  0.54085000  0.94452000  0.41269000  1.0
  H  H74  1  0.51471000  0.99042000  0.48472000  1.0
  H  H75  1  0.48108000  0.94531000  0.46140000  1.0
  H  H76  1  0.55230000  0.03515000  0.38775000  1.0
  H  H77  1  0.58476000  0.07578000  0.41662000  1.0
  H  H78  1  0.52189000  0.07257000  0.46151000  1.0
  H  H79  1  0.49609000  0.08746000  0.41920000  1.0
  H  H80  1  0.42265000  0.06715000  0.44558000  1.0
  H  H81  1  0.43665000  0.03178000  0.48316000  1.0
  H  H82  1  0.99774000  0.57736000  0.11767000  1.0
  H  H83  1  0.00363000  0.42949000  0.14656000  1.0
  H  H84  1  0.04849000  0.40781000  0.11619000  1.0
  H  H85  1  0.07955000  0.47865000  0.09062000  1.0
  H  H86  1  0.05210000  0.50655000  0.12881000  1.0
  H  H87  1  0.03819000  0.53474000  0.05043000  1.0
  H  H88  1  0.07295000  0.56678000  0.08277000  1.0
  H  H89  1  0.95655000  0.49868000  0.13400000  1.0
  H  H90  1  0.92677000  0.46821000  0.09779000  1.0
  H  H91  1  0.94917000  0.53029000  0.05579000  1.0
  H  H92  1  0.91984000  0.55679000  0.09365000  1.0
  H  H93  1  0.95123000  0.62637000  0.06781000  1.0
  H  H94  1  0.00437000  0.61400000  0.04356000  1.0
  H  H95  1  0.53092000  0.97555000  0.95090000  1.0
  H  H96  1  0.39352000  0.97065000  0.89996000  1.0
  H  H97  1  0.40225000  0.01141000  0.86349000  1.0
  H  H98  1  0.48787000  0.01483000  0.86303000  1.0
  H  H99  1  0.48535000  0.96486000  0.89372000  1.0
  H  H100  1  0.53862000  0.06259000  0.90316000  1.0
  H  H101  1  0.56506000  0.00419000  0.89479000  1.0
  H  H102  1  0.44053000  0.98034000  0.95356000  1.0
  H  H103  1  0.41531000  0.03991000  0.96013000  1.0
  H  H104  1  0.49594000  0.07732000  0.96055000  1.0
  H  H105  1  0.49258000  0.02896000  0.99242000  1.0
  H  H106  1  0.57906000  0.02371000  0.99232000  1.0
  H  H107  1  0.58720000  0.06828000  0.95864000  1.0
  H  H108  1  0.07759000  0.17247000  0.47308000  1.0
  H  H109  1  0.14653000  0.04710000  0.39359000  1.0
  H  H110  1  0.11119000  0.02786000  0.43080000  1.0
  H  H111  1  0.16105000  0.06942000  0.49129000  1.0
  H  H112  1  0.09913000  0.08250000  0.47948000  1.0
  H  H113  1  0.18240000  0.15548000  0.49153000  1.0
  H  H114  1  0.13093000  0.14449000  0.51964000  1.0
  H  H115  1  0.08331000  0.11949000  0.41839000  1.0
  H  H116  1  0.13490000  0.13059000  0.39023000  1.0
  H  H117  1  0.16727000  0.19190000  0.43048000  1.0
  H  H118  1  0.10576000  0.20578000  0.41810000  1.0
  H  H119  1  0.10426000  0.25809000  0.46740000  1.0
  H  H120  1  0.16034000  0.24008000  0.48818000  1.0
  H  H121  1  0.15189000  0.84517000  0.60381000  1.0
  H  H122  1  0.26520000  0.86044000  0.52110000  1.0
  H  H123  1  0.29170000  0.91510000  0.53858000  1.0
  H  H124  1  0.25681000  0.92723000  0.59368000  1.0
  H  H125  1  0.24032000  0.86401000  0.59116000  1.0
  H  H126  1  0.17321000  0.95174000  0.60534000  1.0
  H  H127  1  0.19312000  0.90689000  0.63678000  1.0
  H  H128  1  0.18520000  0.83727000  0.54064000  1.0
  H  H129  1  0.16510000  0.88275000  0.50972000  1.0
  H  H130  1  0.11745000  0.92417000  0.55497000  1.0
  H  H131  1  0.10112000  0.86107000  0.55298000  1.0
  H  H132  1  0.08324000  0.92900000  0.61326000  1.0
  H  H133  1  0.11022000  0.89642000  0.64919000  1.0
  H  H134  1  0.95788000  0.82361000  0.51994000  1.0
  H  H135  1  0.89131000  0.91173000  0.42018000  1.0
  H  H136  1  0.93542000  0.94348000  0.44624000  1.0
  H  H137  1  0.90281000  0.94611000  0.51648000  1.0
  H  H138  1  0.95522000  0.91229000  0.50227000  1.0
  H  H139  1  0.86824000  0.87488000  0.54572000  1.0
  H  H140  1  0.92921000  0.88530000  0.56083000  1.0
  H  H141  1  0.94068000  0.84340000  0.45652000  1.0
  H  H142  1  0.87912000  0.83378000  0.44202000  1.0
  H  H143  1  0.85341000  0.80846000  0.50117000  1.0
  H  H144  1  0.90415000  0.77294000  0.48607000  1.0
  H  H145  1  0.91670000  0.75098000  0.54539000  1.0
  H  H146  1  0.87595000  0.79225000  0.56713000  1.0
  H  H147  1  0.91054000  0.20698000  0.57034000  1.0
  H  H148  1  0.79407000  0.15844000  0.49899000  1.0
  H  H149  1  0.76845000  0.11157000  0.52668000  1.0
  H  H150  1  0.80352000  0.12753000  0.58159000  1.0
  H  H151  1  0.82128000  0.18532000  0.56342000  1.0
  H  H152  1  0.88670000  0.10823000  0.59873000  1.0
  H  H153  1  0.86817000  0.16567000  0.61689000  1.0
  H  H154  1  0.87649000  0.18538000  0.50920000  1.0
  H  H155  1  0.89530000  0.12769000  0.49158000  1.0
  H  H156  1  0.94222000  0.10872000  0.54454000  1.0
  H  H157  1  0.96010000  0.16644000  0.52661000  1.0
  H  H158  1  0.97591000  0.13097000  0.60147000  1.0
  H  H159  1  0.95160000  0.18190000  0.62547000  1.0
  H  H160  1  0.93180000  0.19253000  0.98038000  1.0
  H  H161  1  0.89703000  0.06186000  0.91858000  1.0
  H  H162  1  0.85174000  0.08795000  0.89003000  1.0
  H  H163  1  0.86090000  0.17106000  0.89889000  1.0
  H  H164  1  0.91796000  0.15609000  0.91948000  1.0
  H  H165  1  0.83388000  0.21669000  0.95067000  1.0
  H  H166  1  0.89161000  0.23856000  0.93517000  1.0
  H  H167  1  0.91627000  0.10130000  0.97398000  1.0
  H  H168  1  0.85815000  0.08019000  0.98934000  1.0
  H  H169  1  0.83270000  0.16221000  0.00535000  1.0
  H  H170  1  0.88967000  0.14748000  0.02588000  1.0
  H  H171  1  0.84940000  0.24775000  0.01320000  1.0
  H  H172  1  0.90055000  0.27531000  0.99129000  1.0
  H  H173  1  0.11092000  0.19629000  0.07288000  1.0
  H  H174  1  0.25466000  0.12260000  0.01535000  1.0
  H  H175  1  0.22448000  0.17094000  0.99199000  1.0
  H  H176  1  0.12633000  0.14075000  0.98392000  1.0
  H  H177  1  0.14371000  0.19309000  0.00949000  1.0
  H  H178  1  0.08103000  0.10635000  0.03341000  1.0
  H  H179  1  0.06112000  0.16729000  0.02462000  1.0
  H  H180  1  0.20024000  0.17990000  0.06220000  1.0
  H  H181  1  0.22011000  0.11885000  0.07134000  1.0
  H  H182  1  0.13787000  0.09249000  0.08588000  1.0
  H  H183  1  0.15522000  0.14419000  0.11207000  1.0
  H  H184  1  0.07187000  0.15317000  0.12356000  1.0
  H  H185  1  0.04653000  0.11213000  0.09161000  1.0
  H  H186  1  0.17879000  0.90181000  0.94666000  1.0
  H  H187  1  0.15899000  0.79259000  0.03298000  1.0
  H  H188  1  0.11241000  0.75910000  0.01028000  1.0
  H  H189  1  0.10627000  0.78957000  0.95332000  1.0
  H  H190  1  0.16666000  0.81255000  0.96083000  1.0
  H  H191  1  0.07597000  0.86954000  0.93646000  1.0
  H  H192  1  0.12766000  0.85280000  0.91002000  1.0
  H  H193  1  0.17909000  0.87259000  0.01112000  1.0
  H  H194  1  0.12703000  0.88957000  0.03714000  1.0
  H  H195  1  0.08917000  0.93042000  0.98700000  1.0
  H  H196  1  0.14960000  0.95318000  0.99387000  1.0
  H  H197  1  0.09122000  0.96154000  0.92800000  1.0
  H  H198  1  0.13150000  0.93574000  0.89576000  1.0
  H  H199  1  0.88903000  0.85760000  0.09021000  1.0
  H  H200  1  0.74329000  0.93692000  0.03957000  1.0
  H  H201  1  0.76360000  0.88122000  0.01947000  1.0
  H  H202  1  0.86184000  0.89893000  0.99867000  1.0
  H  H203  1  0.84478000  0.85359000  0.03065000  1.0
  H  H204  1  0.91922000  0.93625000  0.03959000  1.0
  H  H205  1  0.93148000  0.87244000  0.03525000  1.0
  H  H206  1  0.80051000  0.88175000  0.08634000  1.0
  H  H207  1  0.78829000  0.94569000  0.09108000  1.0
  H  H208  1  0.87454000  0.96512000  0.09505000  1.0
  H  H209  1  0.85773000  0.92046000  0.12757000  1.0
  H  H210  1  0.94134000  0.90453000  0.13197000  1.0
  H  H211  1  0.96350000  0.93720000  0.09443000  1.0
  H  H212  1  0.16987000  0.09433000  0.75853000  1.0
  H  H213  1  0.19508000  0.19959000  0.67519000  1.0
  H  H214  1  0.18981000  0.25597000  0.69896000  1.0
  H  H215  1  0.20422000  0.22422000  0.75629000  1.0
  H  H216  1  0.21818000  0.16674000  0.73598000  1.0
  H  H217  1  0.14170000  0.18800000  0.79366000  1.0
  H  H218  1  0.19836000  0.15639000  0.79878000  1.0
  H  H219  1  0.15234000  0.12719000  0.69754000  1.0
  H  H220  1  0.09562000  0.15893000  0.69269000  1.0
  H  H221  1  0.07627000  0.14934000  0.75538000  1.0
  H  H222  1  0.08899000  0.09157000  0.73521000  1.0
  H  H223  1  0.10287000  0.06004000  0.79298000  1.0
  H  H224  1  0.09780000  0.11695000  0.81577000  1.0
  H  H225  1  0.20309000  0.90663000  0.28097000  1.0
  H  H226  1  0.08272000  0.91628000  0.21072000  1.0
  H  H227  1  0.03252000  0.89618000  0.23744000  1.0
  H  H228  1  0.07017000  0.91108000  0.29292000  1.0
  H  H229  1  0.11901000  0.93912000  0.26873000  1.0
  H  H230  1  0.12571000  0.85556000  0.32286000  1.0
  H  H231  1  0.14491000  0.91745000  0.32850000  1.0
  H  H232  1  0.16435000  0.88546000  0.22278000  1.0
  H  H233  1  0.14418000  0.82365000  0.21812000  1.0
  H  H234  1  0.16946000  0.80334000  0.27833000  1.0
  H  H235  1  0.21892000  0.82936000  0.25371000  1.0
  H  H236  1  0.25772000  0.84709000  0.30830000  1.0
  H  H237  1  0.20846000  0.82929000  0.33666000  1.0
  H  H238  1  0.86574000  0.88481000  0.83428000  1.0
  H  H239  1  0.00233000  0.88441000  0.77665000  1.0
  H  H240  1  0.98788000  0.92324000  0.73983000  1.0
  H  H241  1  0.91930000  0.96200000  0.76396000  1.0
  H  H242  1  0.93406000  0.93346000  0.80549000  1.0
  H  H243  1  0.83738000  0.92843000  0.76436000  1.0
  H  H244  1  0.84962000  0.96079000  0.80473000  1.0
  H  H245  1  0.93763000  0.84054000  0.80702000  1.0
  H  H246  1  0.92524000  0.80842000  0.76650000  1.0
  H  H247  1  0.84108000  0.83587000  0.76570000  1.0
  H  H248  1  0.85519000  0.80679000  0.80708000  1.0
  H  H249  1  0.78602000  0.84638000  0.83175000  1.0
  H  H250  1  0.77266000  0.88248000  0.79326000  1.0
  H  H251  1  0.91497000  0.19180000  0.25268000  1.0
  H  H252  1  0.93865000  0.08534000  0.33411000  1.0
  H  H253  1  0.93162000  0.02922000  0.31029000  1.0
  H  H254  1  0.94572000  0.06122000  0.25292000  1.0
  H  H255  1  0.96145000  0.11789000  0.27375000  1.0
  H  H256  1  0.88388000  0.10000000  0.21624000  1.0
  H  H257  1  0.94140000  0.13003000  0.21124000  1.0
  H  H258  1  0.89639000  0.15840000  0.31307000  1.0
  H  H259  1  0.83902000  0.12774000  0.31751000  1.0
  H  H260  1  0.81994000  0.13929000  0.25491000  1.0
  H  H261  1  0.83398000  0.19627000  0.27579000  1.0
  H  H262  1  0.84963000  0.22951000  0.21869000  1.0
  H  H263  1  0.84218000  0.17350000  0.19510000  1.0
  C  C264  1  0.09672000  0.23737000  0.52076000  1.0
  C  C265  1  0.03722000  0.35136000  0.56147000  1.0
  C  C266  1  0.11283000  0.34153000  0.57287000  1.0
  C  C267  1  0.10394000  0.39031000  0.56900000  1.0
  C  C268  1  0.00240000  0.20124000  0.58641000  1.0
  C  C269  1  0.12322000  0.22800000  0.63301000  1.0
  C  C270  1  0.06579000  0.27743000  0.64623000  1.0
  C  C271  1  0.09427000  0.27062000  0.67577000  1.0
  C  C272  1  0.25326000  0.92596000  0.49147000  1.0
  C  C273  1  0.34597000  0.00531000  0.45132000  1.0
  C  C274  1  0.34786000  0.93686000  0.42438000  1.0
  C  C275  1  0.39446000  0.95401000  0.42728000  1.0
  C  C276  1  0.18780000  0.01324000  0.43286000  1.0
  C  C277  1  0.22871000  0.90344000  0.37946000  1.0
  C  C278  1  0.26590000  0.96906000  0.36517000  1.0
  C  C279  1  0.25976000  0.94141000  0.33519000  1.0
  C  C280  1  0.95034000  0.79375000  0.58428000  1.0
  C  C281  1  0.03818000  0.69967000  0.62413000  1.0
  C  C282  1  0.97106000  0.70625000  0.65249000  1.0
  C  C283  1  0.98693000  0.65898000  0.65502000  1.0
  C  C284  1  0.06078000  0.85490000  0.61995000  1.0
  C  C285  1  0.98032000  0.84840000  0.69247000  1.0
  C  C286  1  0.02970000  0.78917000  0.70044000  1.0
  C  C287  1  0.02309000  0.81259000  0.73225000  1.0
  C  C288  1  0.80653000  0.08496000  0.48256000  1.0
  C  C289  1  0.71060000  0.00578000  0.43533000  1.0
  C  C290  1  0.72646000  0.07165000  0.40742000  1.0
  C  C291  1  0.67929000  0.05851000  0.40032000  1.0
  C  C292  1  0.86242000  0.97062000  0.44796000  1.0
  C  C293  1  0.86830000  0.05694000  0.37744000  1.0
  C  C294  1  0.81041000  0.00760000  0.36520000  1.0
  C  C295  1  0.83684000  0.01582000  0.33485000  1.0
  C  C296  1  0.91833000  0.24007000  0.03897000  1.0
  C  C297  1  0.99173000  0.33918000  0.09255000  1.0
  C  C298  1  0.91766000  0.32907000  0.10821000  1.0
  C  C299  1  0.93161000  0.37532000  0.11717000  1.0
  C  C300  1  0.02070000  0.18569000  0.08999000  1.0
  C  C301  1  0.90933000  0.20591000  0.15038000  1.0
  C  C302  1  0.97135000  0.24956000  0.16334000  1.0
  C  C303  1  0.94649000  0.23951000  0.19401000  1.0
  C  C304  1  0.21711000  0.09934000  0.97015000  1.0
  C  C305  1  0.31471000  0.02254000  0.91448000  1.0
  C  C306  1  0.30533000  0.09898000  0.90627000  1.0
  C  C307  1  0.35255000  0.08694000  0.89819000  1.0
  C  C308  1  0.16381000  0.98999000  0.92667000  1.0
  C  C309  1  0.16423000  0.08390000  0.86070000  1.0
  C  C310  1  0.22223000  0.03452000  0.84885000  1.0
  C  C311  1  0.19806000  0.04509000  0.81796000  1.0
  C  C312  1  0.08649000  0.79880000  0.05356000  1.0
  C  C313  1  0.00454000  0.70491000  0.08240000  1.0
  C  C314  1  0.06338000  0.70540000  0.11950000  1.0
  C  C315  1  0.05117000  0.65796000  0.11232000  1.0
  C  C316  1  0.98282000  0.86181000  0.09755000  1.0
  C  C317  1  0.06586000  0.84580000  0.16490000  1.0
  C  C318  1  0.01686000  0.78633000  0.17280000  1.0
  C  C319  1  0.02512000  0.80839000  0.20497000  1.0
  C  C320  1  0.77363000  0.94638000  0.98918000  1.0
  C  C321  1  0.66949000  0.01680000  0.95013000  1.0
  C  C322  1  0.67280000  0.94213000  0.93428000  1.0
  C  C323  1  0.62522000  0.95392000  0.94091000  1.0
  C  C324  1  0.82318000  0.03997000  0.92763000  1.0
  C  C325  1  0.78953000  0.92487000  0.87647000  1.0
  C  C326  1  0.74528000  0.98650000  0.86357000  1.0
  C  C327  1  0.75192000  0.95929000  0.83338000  1.0
  C  C328  1  0.06223000  0.61374000  0.63712000  1.0
  C  C329  1  0.01036000  0.54522000  0.62108000  1.0
  C  C330  1  0.99829000  0.50726000  0.59259000  1.0
  C  C331  1  0.09230000  0.55132000  0.59738000  1.0
  C  C332  1  0.07883000  0.51448000  0.56869000  1.0
  C  C333  1  0.03037000  0.44207000  0.55513000  1.0
  C  C334  1  0.62757000  0.98538000  0.41282000  1.0
  C  C335  1  0.55100000  0.96103000  0.43855000  1.0
  C  C336  1  0.50490000  0.97732000  0.45777000  1.0
  C  C337  1  0.56068000  0.04362000  0.41590000  1.0
  C  C338  1  0.51336000  0.05787000  0.43477000  1.0
  C  C339  1  0.43345000  0.02993000  0.45383000  1.0
  C  C340  1  0.01040000  0.42101000  0.11818000  1.0
  C  C341  1  0.04639000  0.49725000  0.10043000  1.0
  C  C342  1  0.04014000  0.54406000  0.07908000  1.0
  C  C343  1  0.95844000  0.49077000  0.10515000  1.0
  C  C344  1  0.95354000  0.53846000  0.08448000  1.0
  C  C345  1  0.99023000  0.61677000  0.07107000  1.0
  C  C346  1  0.39962000  0.00939000  0.89283000  1.0
  C  C347  1  0.48720000  0.00512000  0.89157000  1.0
  C  C348  1  0.53458000  0.02301000  0.90825000  1.0
  C  C349  1  0.44540000  0.01955000  0.94741000  1.0
  C  C350  1  0.49330000  0.03722000  0.96361000  1.0
  C  C351  1  0.58107000  0.02883000  0.96316000  1.0
  C  C352  1  0.14610000  0.04506000  0.42297000  1.0
  C  C353  1  0.13740000  0.09452000  0.47606000  1.0
  C  C354  1  0.14322000  0.14564000  0.49164000  1.0
  C  C355  1  0.12244000  0.12954000  0.41819000  1.0
  C  C356  1  0.12877000  0.18044000  0.43370000  1.0
  C  C357  1  0.12110000  0.23125000  0.48562000  1.0
  C  C358  1  0.25880000  0.89978000  0.52574000  1.0
  C  C359  1  0.22755000  0.90163000  0.58585000  1.0
  C  C360  1  0.18301000  0.91278000  0.60860000  1.0
  C  C361  1  0.17504000  0.87617000  0.53781000  1.0
  C  C362  1  0.13035000  0.88672000  0.56077000  1.0
  C  C363  1  0.09912000  0.89342000  0.62098000  1.0
  C  C364  1  0.89753000  0.92955000  0.44621000  1.0
  C  C365  1  0.91557000  0.90985000  0.50761000  1.0
  C  C366  1  0.90712000  0.87354000  0.53776000  1.0
  C  C367  1  0.90195000  0.84528000  0.46477000  1.0
  C  C368  1  0.89295000  0.80966000  0.49515000  1.0
  C  C369  1  0.91299000  0.78857000  0.55574000  1.0
  C  C370  1  0.80086000  0.12218000  0.51096000  1.0
  C  C371  1  0.83321000  0.14719000  0.56778000  1.0
  C  C372  1  0.87780000  0.14654000  0.59194000  1.0
  C  C373  1  0.88566000  0.14726000  0.51629000  1.0
  C  C374  1  0.93036000  0.14693000  0.54049000  1.0
  C  C375  1  0.96220000  0.16876000  0.59874000  1.0
  C  C376  1  0.85984000  0.07752000  0.91783000  1.0
  C  C377  1  0.87876000  0.16292000  0.92458000  1.0
  C  C378  1  0.87312000  0.20757000  0.94835000  1.0
  C  C379  1  0.87718000  0.11094000  0.97633000  1.0
  C  C380  1  0.87194000  0.15574000  0.00016000  1.0
  C  C381  1  0.88822000  0.24263000  0.00603000  1.0
  C  C382  1  0.22086000  0.13272000  0.00109000  1.0
  C  C383  1  0.13583000  0.15352000  0.01094000  1.0
  C  C384  1  0.09175000  0.14524000  0.03500000  1.0
  C  C385  1  0.18954000  0.14098000  0.06098000  1.0
  C  C386  1  0.14556000  0.13214000  0.08488000  1.0
  C  C387  1  0.06066000  0.14959000  0.09541000  1.0
  C  C388  1  0.12089000  0.79423000  0.02335000  1.0
  C  C389  1  0.12737000  0.82168000  0.96224000  1.0
  C  C390  1  0.11594000  0.86364000  0.93706000  1.0
  C  C391  1  0.13923000  0.87897000  0.01020000  1.0
  C  C392  1  0.12839000  0.92112000  0.98495000  1.0
  C  C393  1  0.12897000  0.94854000  0.92361000  1.0
  C  C394  1  0.77275000  0.92011000  0.02364000  1.0
  C  C395  1  0.85650000  0.89198000  0.02737000  1.0
  C  C396  1  0.90534000  0.89936000  0.04606000  1.0
  C  C397  1  0.81439000  0.91876000  0.08027000  1.0
  C  C398  1  0.86312000  0.92669000  0.09875000  1.0
  C  C399  1  0.94715000  0.90216000  0.10289000  1.0
  C  C400  1  0.16953000  0.22327000  0.69013000  1.0
  C  C401  1  0.18849000  0.18908000  0.74755000  1.0
  C  C402  1  0.16787000  0.16336000  0.78020000  1.0
  C  C403  1  0.12623000  0.15178000  0.71108000  1.0
  C  C404  1  0.10555000  0.12643000  0.74383000  1.0
  C  C405  1  0.12355000  0.09266000  0.80155000  1.0
  C  C406  1  0.06706000  0.88443000  0.22485000  1.0
  C  C407  1  0.10588000  0.90428000  0.28019000  1.0
  C  C408  1  0.14129000  0.88757000  0.30892000  1.0
  C  C409  1  0.14830000  0.85407000  0.23715000  1.0
  C  C410  1  0.18332000  0.83749000  0.26625000  1.0
  C  C411  1  0.22364000  0.85996000  0.32099000  1.0
  C  C412  1  0.97965000  0.88766000  0.75238000  1.0
  C  C413  1  0.91280000  0.92939000  0.78061000  1.0
  C  C414  1  0.85859000  0.92755000  0.78943000  1.0
  C  C415  1  0.91626000  0.84144000  0.78202000  1.0
  C  C416  1  0.86201000  0.83968000  0.79076000  1.0
  C  C417  1  0.79428000  0.88124000  0.81815000  1.0
  C  C418  1  0.91223000  0.06231000  0.31943000  1.0
  C  C419  1  0.93104000  0.09659000  0.26212000  1.0
  C  C420  1  0.91087000  0.12355000  0.22987000  1.0
  C  C421  1  0.86979000  0.13466000  0.29922000  1.0
  C  C422  1  0.84973000  0.16123000  0.26676000  1.0
  C  C423  1  0.86894000  0.19632000  0.20961000  1.0
  N  N424  1  0.13011000  0.23960000  0.66723000  1.0
  N  N425  1  0.08412000  0.25061000  0.61962000  1.0
  N  N426  1  0.05632000  0.39645000  0.56211000  1.0
  N  N427  1  0.07103000  0.31729000  0.56799000  1.0
  N  N428  1  0.23621000  0.90047000  0.34431000  1.0
  N  N429  1  0.24653000  0.94503000  0.39278000  1.0
  N  N430  1  0.39333000  0.99702000  0.44447000  1.0
  N  N431  1  0.31759000  0.96921000  0.43922000  1.0
  N  N432  1  0.99218000  0.84969000  0.72702000  1.0
  N  N433  1  0.00278000  0.81170000  0.67565000  1.0
  N  N434  1  0.02884000  0.65498000  0.63692000  1.0
  N  N435  1  0.00349000  0.73159000  0.63333000  1.0
  N  N436  1  0.87304000  0.04672000  0.34280000  1.0
  N  N437  1  0.83025000  0.03354000  0.39171000  1.0
  N  N438  1  0.66924000  0.01747000  0.41828000  1.0
  N  N439  1  0.74602000  0.03824000  0.42909000  1.0
  N  N440  1  0.90785000  0.21178000  0.18576000  1.0
  N  N441  1  0.94785000  0.22859000  0.13612000  1.0
  N  N442  1  0.97793000  0.38190000  0.10682000  1.0
  N  N443  1  0.95556000  0.30636000  0.09309000  1.0
  N  N444  1  0.16190000  0.07628000  0.82554000  1.0
  N  N445  1  0.20085000  0.05885000  0.87550000  1.0
  N  N446  1  0.35814000  0.03898000  0.90345000  1.0
  N  N447  1  0.28179000  0.05848000  0.91647000  1.0
  N  N448  1  0.05569000  0.84577000  0.19973000  1.0
  N  N449  1  0.04258000  0.80988000  0.14782000  1.0
  N  N450  1  0.01417000  0.65779000  0.08886000  1.0
  N  N451  1  0.03384000  0.73459000  0.10084000  1.0
  N  N452  1  0.77978000  0.92082000  0.84168000  1.0
  N  N453  1  0.76894000  0.96475000  0.89039000  1.0
  N  N454  1  0.62314000  0.00111000  0.95040000  1.0
  N  N455  1  0.70037000  0.98149000  0.94031000  1.0
  N  N456  1  0.04908000  0.57855000  0.60910000  1.0
  N  N457  1  0.04211000  0.47988000  0.58205000  1.0
  N  N458  1  0.58487000  0.00202000  0.43335000  1.0
  N  N459  1  0.48030000  0.01586000  0.43732000  1.0
  N  N460  1  0.00391000  0.46503000  0.09618000  1.0
  N  N461  1  0.99595000  0.57018000  0.09048000  1.0
  N  N462  1  0.44486000  0.02786000  0.90881000  1.0
  N  N463  1  0.53500000  0.01283000  0.94665000  1.0
  N  N464  1  0.15137000  0.09404000  0.43834000  1.0
  N  N465  1  0.11445000  0.18158000  0.47139000  1.0
  N  N466  1  0.21573000  0.90799000  0.54813000  1.0
  N  N467  1  0.14176000  0.88119000  0.59885000  1.0
  N  N468  1  0.88891000  0.89507000  0.47546000  1.0
  N  N469  1  0.92100000  0.82390000  0.52677000  1.0
  N  N470  1  0.84427000  0.12322000  0.53386000  1.0
  N  N471  1  0.91964000  0.17056000  0.57481000  1.0
  N  N472  1  0.85580000  0.12031000  0.94116000  1.0
  N  N473  1  0.89456000  0.19892000  0.98365000  1.0
  N  N474  1  0.17829000  0.12654000  0.02437000  1.0
  N  N475  1  0.10271000  0.15916000  0.07199000  1.0
  N  N476  1  0.11340000  0.83489000  0.99857000  1.0
  N  N477  1  0.14138000  0.90841000  0.94807000  1.0
  N  N478  1  0.81979000  0.92560000  0.04182000  1.0
  N  N479  1  0.90036000  0.89314000  0.08480000  1.0
  N  N480  1  0.14989000  0.19771000  0.72128000  1.0
  N  N481  1  0.14412000  0.11728000  0.77015000  1.0
  N  N482  1  0.10070000  0.86697000  0.25241000  1.0
  N  N483  1  0.18902000  0.87567000  0.29336000  1.0
  N  N484  1  0.92760000  0.88534000  0.76128000  1.0
  N  N485  1  0.84681000  0.88365000  0.81024000  1.0
  N  N486  1  0.89252000  0.08843000  0.28856000  1.0
  N  N487  1  0.88857000  0.17005000  0.24061000  1.0
  O  O488  1  0.04900000  0.24454000  0.52422000  1.0
  O  O489  1  0.12105000  0.23790000  0.55130000  1.0
  O  O490  1  0.04580000  0.18445000  0.57660000  1.0
  O  O491  1  0.99905000  0.24961000  0.58632000  1.0
  O  O492  1  0.24970000  0.97423000  0.48934000  1.0
  O  O493  1  0.25346000  0.90345000  0.46018000  1.0
  O  O494  1  0.18196000  0.96698000  0.44244000  1.0
  O  O495  1  0.23418000  0.02660000  0.42922000  1.0
  O  O496  1  0.99796000  0.79084000  0.57797000  1.0
  O  O497  1  0.93904000  0.80065000  0.61829000  1.0
  O  O498  1  0.01357000  0.86529000  0.61773000  1.0
  O  O499  1  0.07007000  0.80795000  0.62568000  1.0
  O  O500  1  0.79930000  0.03758000  0.48800000  1.0
  O  O501  1  0.81802000  0.09633000  0.44925000  1.0
  O  O502  1  0.87634000  0.01671000  0.45202000  1.0
  O  O503  1  0.81552000  0.96543000  0.43992000  1.0
  O  O504  1  0.96656000  0.24495000  0.03888000  1.0
  O  O505  1  0.89918000  0.23388000  0.07111000  1.0
  O  O506  1  0.97524000  0.17283000  0.08213000  1.0
  O  O507  1  0.02641000  0.23320000  0.09560000  1.0
  O  O508  1  0.22387000  0.05148000  0.97280000  1.0
  O  O509  1  0.20816000  0.11477000  0.93728000  1.0
  O  O510  1  0.14967000  0.03561000  0.93263000  1.0
  O  O511  1  0.21116000  0.98540000  0.92001000  1.0
  O  O512  1  0.03840000  0.79962000  0.04918000  1.0
  O  O513  1  0.10083000  0.80140000  0.08727000  1.0
  O  O514  1  0.03027000  0.86992000  0.09368000  1.0
  O  O515  1  0.97129000  0.81492000  0.10095000  1.0
  O  O516  1  0.77160000  0.99471000  0.98681000  1.0
  O  O517  1  0.77347000  0.92362000  0.95800000  1.0
  O  O518  1  0.83530000  0.99473000  0.93667000  1.0
  O  O519  1  0.77536000  0.04777000  0.92613000  1.0
