# generated using pymatgen
data_Ni2H4C10N4O9
_symmetry_space_group_name_H-M   'P 1'
_cell_length_a   21.01115000
_cell_length_b   21.01115000
_cell_length_c   28.74750000
_cell_angle_alpha   90.00000000
_cell_angle_beta   90.00000000
_cell_angle_gamma   90.00000000
_symmetry_Int_Tables_number   1
_chemical_formula_structural   Ni2H4C10N4O9
_chemical_formula_sum   'Ni16 H32 C80 N32 O72'
_cell_volume   12691.11352821
_cell_formula_units_Z   8
loop_
 _symmetry_equiv_pos_site_id
 _symmetry_equiv_pos_as_xyz
  1  'x, y, z'
loop_
 _atom_site_type_symbol
 _atom_site_label
 _atom_site_symmetry_multiplicity
 _atom_site_fract_x
 _atom_site_fract_y
 _atom_site_fract_z
 _atom_site_occupancy
  C  C0  1  0.08594000  0.15528000  0.36774000  1.0
  C  C1  1  0.19774000  0.24756000  0.42584000  1.0
  C  C2  1  0.31848000  0.19600000  0.29028000  1.0
  C  C3  1  0.04772000  0.25438000  0.26779000  1.0
  C  C4  1  0.45714000  0.63780000  0.87286000  1.0
  C  C5  1  0.34572000  0.71652000  0.94305000  1.0
  C  C6  1  0.33216000  0.84338000  0.80196000  1.0
  C  C7  1  0.27508000  0.51118000  0.84044000  1.0
  C  C8  1  0.96818000  0.94946000  0.37654000  1.0
  C  C9  1  0.87654000  0.84538000  0.44474000  1.0
  C  C10  1  0.77534000  0.81036000  0.30183000  1.0
  C  C11  1  0.07604000  0.81490000  0.31895000  1.0
  C  C12  1  0.65680000  0.50828000  0.87449000  1.0
  C  C13  1  0.73200000  0.37904000  0.92892000  1.0
  C  C14  1  0.68970000  0.26980000  0.79477000  1.0
  C  C15  1  0.77860000  0.55010000  0.78902000  1.0
  C  C16  1  0.60104000  0.40374000  0.15943000  1.0
  C  C17  1  0.71080000  0.31730000  0.09549000  1.0
  C  C18  1  0.84682000  0.35290000  0.21065000  1.0
  C  C19  1  0.51898000  0.23956000  0.20378000  1.0
  C  C20  1  0.10888000  0.12512000  0.65335000  1.0
  C  C21  1  0.22260000  0.21780000  0.59637000  1.0
  C  C22  1  0.20954000  0.31944000  0.75018000  1.0
  C  C23  1  0.22332000  0.03762000  0.73873000  1.0
  C  C24  1  0.47396000  0.60336000  0.16155000  1.0
  C  C25  1  0.38812000  0.73100000  0.11241000  1.0
  C  C26  1  0.25920000  0.73002000  0.22641000  1.0
  C  C27  1  0.57450000  0.70606000  0.24932000  1.0
  C  C28  1  0.91390000  0.99302000  0.66666667  1.0
  C  C29  1  0.82784000  0.87376000  0.61242000  1.0
  C  C30  1  0.87522000  0.75352000  0.73442000  1.0
  C  C31  1  0.73756000  0.06076000  0.72129000  1.0
  C  C32  1  0.03696000  0.10660000  0.37527000  1.0
  C  C33  1  0.04646000  0.04154000  0.37482000  1.0
  C  C34  1  0.98576000  0.01700000  0.37790000  1.0
  C  C35  1  0.52272000  0.61536000  0.87859000  1.0
  C  C36  1  0.54440000  0.55390000  0.87181000  1.0
  C  C37  1  0.60876000  0.55826000  0.88084000  1.0
  C  C38  1  0.55116000  0.45142000  0.15195000  1.0
  C  C39  1  0.55544000  0.51514000  0.16270000  1.0
  C  C40  1  0.49564000  0.53828000  0.15264000  1.0
  C  C41  1  0.04436000  0.10020000  0.64750000  1.0
  C  C42  1  0.02394000  0.04092000  0.66124000  1.0
  C  C43  1  0.95914000  0.04296000  0.65384000  1.0
  C  C44  1  0.21402000  0.25802000  0.47477000  1.0
  C  C45  1  0.22434000  0.21144000  0.50786000  1.0
  C  C46  1  0.22434000  0.24486000  0.54932000  1.0
  C  C47  1  0.34544000  0.73654000  0.99177000  1.0
  C  C48  1  0.37968000  0.70796000  0.02679000  1.0
  C  C49  1  0.36250000  0.74166000  0.06582000  1.0
  C  C50  1  0.82300000  0.85770000  0.56307000  1.0
  C  C51  1  0.87330000  0.85198000  0.53263000  1.0
  C  C52  1  0.84420000  0.84738000  0.48978000  1.0
  C  C53  1  0.73046000  0.34348000  0.97274000  1.0
  C  C54  1  0.73768000  0.36736000  0.01721000  1.0
  C  C55  1  0.72236000  0.31600000  0.04527000  1.0
  C  C56  1  0.46904000  0.23884000  0.23950000  1.0
  C  C57  1  0.41266000  0.20574000  0.23626000  1.0
  C  C58  1  0.38126000  0.22056000  0.27685000  1.0
  C  C59  1  0.28616000  0.89414000  0.79129000  1.0
  C  C60  1  0.29432000  0.94308000  0.75962000  1.0
  C  C61  1  0.24050000  0.98012000  0.76529000  1.0
  C  C62  1  0.72460000  0.76374000  0.29325000  1.0
  C  C63  1  0.67174000  0.77388000  0.26578000  1.0
  C  C64  1  0.63514000  0.72026000  0.27265000  1.0
  C  C65  1  0.71960000  0.20950000  0.78147000  1.0
  C  C66  1  0.69330000  0.16376000  0.75309000  1.0
  C  C67  1  0.73976000  0.11752000  0.75079000  1.0
  C  C68  1  0.99360000  0.27260000  0.23828000  1.0
  C  C69  1  0.95302000  0.32308000  0.24641000  1.0
  C  C70  1  0.90550000  0.31518000  0.21385000  1.0
  C  C71  1  0.24338000  0.37600000  0.76702000  1.0
  C  C72  1  0.22818000  0.41046000  0.80629000  1.0
  C  C73  1  0.26900000  0.46180000  0.80464000  1.0
  C  C74  1  0.21926000  0.75974000  0.26222000  1.0
  C  C75  1  0.15574000  0.77640000  0.25803000  1.0
  C  C76  1  0.13882000  0.79376000  0.30269000  1.0
  C  C77  1  0.80306000  0.60222000  0.76027000  1.0
  C  C78  1  0.84506000  0.64928000  0.77379000  1.0
  C  C79  1  0.84382000  0.69146000  0.73690000  1.0
  H  H80  1  0.20750000  0.28364000  0.31884000  1.0
  H  H81  1  0.11114000  0.18164000  0.27965000  1.0
  H  H82  1  0.28232000  0.69358000  0.84692000  1.0
  H  H83  1  0.25294000  0.53530000  0.90707000  1.0
  H  H84  1  0.92278000  0.76784000  0.36241000  1.0
  H  H85  1  0.99822000  0.86904000  0.30103000  1.0
  H  H86  1  0.79538000  0.39032000  0.83459000  1.0
  H  H87  1  0.70128000  0.48892000  0.79084000  1.0
  H  H88  1  0.71744000  0.27162000  0.20528000  1.0
  H  H89  1  0.54288000  0.20826000  0.13903000  1.0
  H  H90  1  0.27658000  0.19012000  0.69313000  1.0
  H  H91  1  0.15916000  0.11182000  0.73825000  1.0
  H  H92  1  0.42162000  0.76832000  0.21277000  1.0
  H  H93  1  0.49854000  0.64424000  0.25007000  1.0
  H  H94  1  0.79248000  0.87394000  0.72347000  1.0
  H  H95  1  0.68722000  0.01458000  0.67105000  1.0
  H  H96  1  0.09078000  0.01584000  0.37093000  1.0
  H  H97  1  0.51762000  0.51264000  0.86062000  1.0
  H  H98  1  0.59552000  0.54056000  0.17736000  1.0
  H  H99  1  0.05174000  0.00294000  0.67660000  1.0
  H  H100  1  0.22566000  0.16040000  0.50287000  1.0
  H  H101  1  0.41250000  0.66838000  0.02424000  1.0
  H  H102  1  0.92370000  0.85462000  0.54025000  1.0
  H  H103  1  0.74722000  0.41598000  0.02751000  1.0
  H  H104  1  0.39668000  0.17522000  0.20825000  1.0
  H  H105  1  0.33388000  0.95086000  0.73617000  1.0
  H  H106  1  0.66104000  0.81488000  0.24435000  1.0
  H  H107  1  0.64766000  0.16474000  0.73564000  1.0
  H  H108  1  0.95572000  0.35830000  0.27383000  1.0
  H  H109  1  0.19232000  0.39990000  0.83220000  1.0
  H  H110  1  0.12578000  0.77398000  0.22746000  1.0
  H  H111  1  0.86956000  0.65420000  0.80672000  1.0
  N  N112  1  0.94310000  0.06476000  0.38028000  1.0
  N  N113  1  0.97434000  0.11946000  0.37867000  1.0
  N  N114  1  0.62378000  0.61862000  0.89235000  1.0
  N  N115  1  0.57132000  0.65340000  0.89106000  1.0
  N  N116  1  0.45822000  0.49094000  0.13683000  1.0
  N  N117  1  0.49228000  0.43788000  0.13620000  1.0
  N  N118  1  0.94244000  0.10002000  0.63633000  1.0
  N  N119  1  0.99454000  0.13518000  0.63275000  1.0
  N  N120  1  0.21552000  0.30728000  0.54087000  1.0
  N  N121  1  0.20886000  0.31524000  0.49551000  1.0
  N  N122  1  0.32036000  0.78748000  0.05458000  1.0
  N  N123  1  0.31016000  0.78456000  0.00910000  1.0
  N  N124  1  0.78050000  0.84946000  0.49476000  1.0
  N  N125  1  0.76758000  0.85620000  0.53954000  1.0
  N  N126  1  0.70806000  0.26514000  0.01881000  1.0
  N  N127  1  0.71294000  0.28190000  0.97468000  1.0
  N  N128  1  0.41714000  0.26030000  0.30270000  1.0
  N  N129  1  0.47084000  0.27154000  0.27982000  1.0
  N  N130  1  0.20294000  0.95424000  0.79826000  1.0
  N  N131  1  0.23078000  0.90202000  0.81416000  1.0
  N  N132  1  0.66498000  0.68056000  0.30236000  1.0
  N  N133  1  0.71942000  0.70728000  0.31514000  1.0
  N  N134  1  0.79048000  0.13498000  0.77644000  1.0
  N  N135  1  0.77808000  0.19116000  0.79529000  1.0
  N  N136  1  0.91766000  0.26330000  0.18775000  1.0
  N  N137  1  0.97132000  0.23722000  0.20274000  1.0
  N  N138  1  0.30630000  0.45768000  0.76664000  1.0
  N  N139  1  0.29044000  0.40544000  0.74354000  1.0
  N  N140  1  0.18934000  0.78794000  0.33121000  1.0
  N  N141  1  0.23836000  0.76734000  0.30656000  1.0
  N  N142  1  0.80422000  0.67008000  0.70361000  1.0
  N  N143  1  0.77922000  0.61580000  0.71793000  1.0
  Ni  Ni144  1  0.21536000  0.17822000  0.34330000  1.0
  Ni  Ni145  1  0.11254000  0.28570000  0.35362000  1.0
  Ni  Ni146  1  0.37860000  0.74540000  0.85292000  1.0
  Ni  Ni147  1  0.32998000  0.61140000  0.88179000  1.0
  Ni  Ni148  1  0.86998000  0.86268000  0.35017000  1.0
  Ni  Ni149  1  0.99602000  0.82574000  0.40003000  1.0
  Ni  Ni150  1  0.68494000  0.38432000  0.83773000  1.0
  Ni  Ni151  1  0.78708000  0.47984000  0.87515000  1.0
  Ni  Ni152  1  0.72636000  0.37722000  0.18178000  1.0
  Ni  Ni153  1  0.62786000  0.27216000  0.16245000  1.0
  Ni  Ni154  1  0.17672000  0.23420000  0.68502000  1.0
  Ni  Ni155  1  0.23868000  0.10704000  0.65327000  1.0
  Ni  Ni156  1  0.36960000  0.67426000  0.19697000  1.0
  Ni  Ni157  1  0.49970000  0.73070000  0.16770000  1.0
  Ni  Ni158  1  0.89650000  0.86966000  0.69601000  1.0
  Ni  Ni159  1  0.78436000  0.95980000  0.67696000  1.0
  O  O160  1  0.06844000  0.21522000  0.36814000  1.0
  O  O161  1  0.14346000  0.13592000  0.35706000  1.0
  O  O162  1  0.22534000  0.20128000  0.40294000  1.0
  O  O163  1  0.29100000  0.21360000  0.32923000  1.0
  O  O164  1  0.15396000  0.28482000  0.40821000  1.0
  O  O165  1  0.28926000  0.15494000  0.26324000  1.0
  O  O166  1  0.07360000  0.19792000  0.26166000  1.0
  O  O167  1  0.06554000  0.29482000  0.30079000  1.0
  O  O168  1  0.17580000  0.24908000  0.32223000  1.0
  O  O169  1  0.41172000  0.59556000  0.87032000  1.0
  O  O170  1  0.44592000  0.69938000  0.87416000  1.0
  O  O171  1  0.34988000  0.75990000  0.91058000  1.0
  O  O172  1  0.31726000  0.79778000  0.83141000  1.0
  O  O173  1  0.34906000  0.65534000  0.93415000  1.0
  O  O174  1  0.39042000  0.84668000  0.78559000  1.0
  O  O175  1  0.24820000  0.50270000  0.88133000  1.0
  O  O176  1  0.31070000  0.56168000  0.83311000  1.0
  O  O177  1  0.32672000  0.67840000  0.84353000  1.0
  O  O178  1  0.01186000  0.90634000  0.38378000  1.0
  O  O179  1  0.90810000  0.93500000  0.37024000  1.0
  O  O180  1  0.84172000  0.84454000  0.40708000  1.0
  O  O181  1  0.82390000  0.79672000  0.32887000  1.0
  O  O182  1  0.93890000  0.85010000  0.44379000  1.0
  O  O183  1  0.76782000  0.86932000  0.28766000  1.0
  O  O184  1  0.04088000  0.85122000  0.29180000  1.0
  O  O185  1  0.05964000  0.79888000  0.36193000  1.0
  O  O186  1  0.93844000  0.81126000  0.35539000  1.0
  O  O187  1  0.71572000  0.52426000  0.88253000  1.0
  O  O188  1  0.63978000  0.45288000  0.85732000  1.0
  O  O189  1  0.69592000  0.35658000  0.89558000  1.0
  O  O190  1  0.72258000  0.31254000  0.81770000  1.0
  O  O191  1  0.76880000  0.42964000  0.92485000  1.0
  O  O192  1  0.62976000  0.28090000  0.78467000  1.0
  O  O193  1  0.72478000  0.52412000  0.77502000  1.0
  O  O194  1  0.80938000  0.53372000  0.82782000  1.0
  O  O195  1  0.76132000  0.42288000  0.83367000  1.0
  O  O196  1  0.59214000  0.34592000  0.14296000  1.0
  O  O197  1  0.65296000  0.42060000  0.18181000  1.0
  O  O198  1  0.72292000  0.36902000  0.11929000  1.0
  O  O199  1  0.80148000  0.33584000  0.18181000  1.0
  O  O200  1  0.68098000  0.26880000  0.11381000  1.0
  O  O201  1  0.83744000  0.40116000  0.23887000  1.0
  O  O202  1  0.50970000  0.20848000  0.16460000  1.0
  O  O203  1  0.57218000  0.27154000  0.20980000  1.0
  O  O204  1  0.68604000  0.30594000  0.19987000  1.0
  O  O205  1  0.15654000  0.08532000  0.65640000  1.0
  O  O206  1  0.11606000  0.18688000  0.65660000  1.0
  O  O207  1  0.21038000  0.25688000  0.63065000  1.0
  O  O208  1  0.23010000  0.28854000  0.71343000  1.0
  O  O209  1  0.22466000  0.15556000  0.60176000  1.0
  O  O210  1  0.15404000  0.30438000  0.76807000  1.0
  O  O211  1  0.17378000  0.07090000  0.75294000  1.0
  O  O212  1  0.25678000  0.05236000  0.70096000  1.0
  O  O213  1  0.23344000  0.17108000  0.69398000  1.0
  O  O214  1  0.51680000  0.64766000  0.16788000  1.0
  O  O215  1  0.41252000  0.61556000  0.16242000  1.0
  O  O216  1  0.34864000  0.72002000  0.14657000  1.0
  O  O217  1  0.32118000  0.72568000  0.23280000  1.0
  O  O218  1  0.44962000  0.72186000  0.11673000  1.0
  O  O219  1  0.23244000  0.70094000  0.19102000  1.0
  O  O220  1  0.54164000  0.65590000  0.26285000  1.0
  O  O221  1  0.55658000  0.74364000  0.21457000  1.0
  O  O222  1  0.43724000  0.72402000  0.20963000  1.0
  O  O223  1  0.85458000  0.99688000  0.65199000  1.0
  O  O224  1  0.93488000  0.94512000  0.69165000  1.0
  O  O225  1  0.88264000  0.86826000  0.63388000  1.0
  O  O226  1  0.86072000  0.79230000  0.70023000  1.0
  O  O227  1  0.77912000  0.90152000  0.63182000  1.0
  O  O228  1  0.91550000  0.77154000  0.76677000  1.0
  O  O229  1  0.68930000  0.05256000  0.69271000  1.0
  O  O230  1  0.78518000  0.02020000  0.72083000  1.0
  O  O231  1  0.82426000  0.90698000  0.71555000  1.0
