# generated using pymatgen
data_CdH9C18(NF)6
_symmetry_space_group_name_H-M   'P 1'
_cell_length_a   23.78095000
_cell_length_b   38.56730000
_cell_length_c   38.56730000
_cell_angle_alpha   90.00000000
_cell_angle_beta   90.00600000
_cell_angle_gamma   89.99400000
_symmetry_Int_Tables_number   1
_chemical_formula_structural   CdH9C18(NF)6
_chemical_formula_sum   'Cd8 H72 C144 N48 F48'
_cell_volume   35372.65572141
_cell_formula_units_Z   8
loop_
 _symmetry_equiv_pos_site_id
 _symmetry_equiv_pos_as_xyz
  1  'x, y, z'
loop_
 _atom_site_type_symbol
 _atom_site_label
 _atom_site_symmetry_multiplicity
 _atom_site_fract_x
 _atom_site_fract_y
 _atom_site_fract_z
 _atom_site_occupancy
  C  C0  1  0.84476000  0.91899000  0.34129000  1.0
  C  C1  1  0.87324000  0.86641000  0.33773000  1.0
  C  C2  1  0.91938000  0.88798000  0.33620000  1.0
  C  C3  1  0.73286000  0.84452000  0.42170000  1.0
  C  C4  1  0.74040000  0.80048000  0.38816000  1.0
  C  C5  1  0.73594000  0.78883000  0.42185000  1.0
  C  C6  1  0.67620000  0.82070000  0.29698000  1.0
  C  C7  1  0.74188000  0.84648000  0.26904000  1.0
  C  C8  1  0.71146000  0.82662000  0.24605000  1.0
  C  C9  1  0.59864000  0.30351000  0.08471000  1.0
  C  C10  1  0.62550000  0.32728000  0.13210000  1.0
  C  C11  1  0.67056000  0.32591000  0.10983000  1.0
  C  C12  1  0.46914000  0.38733000  0.16267000  1.0
  C  C13  1  0.52022000  0.36038000  0.19969000  1.0
  C  C14  1  0.51204000  0.39378000  0.21134000  1.0
  C  C15  1  0.43526000  0.26041000  0.18069000  1.0
  C  C16  1  0.51440000  0.23981000  0.16394000  1.0
  C  C17  1  0.48676000  0.21470000  0.18277000  1.0
  C  C18  1  0.33494000  0.04225000  0.68998000  1.0
  C  C19  1  0.36216000  0.09516000  0.69230000  1.0
  C  C20  1  0.40890000  0.07408000  0.69331000  1.0
  C  C21  1  0.22192000  0.11749000  0.61218000  1.0
  C  C22  1  0.22450000  0.16098000  0.64671000  1.0
  C  C23  1  0.22080000  0.17319000  0.61319000  1.0
  C  C24  1  0.16736000  0.13675000  0.74090000  1.0
  C  C25  1  0.24212000  0.11543000  0.76346000  1.0
  C  C26  1  0.21430000  0.13427000  0.78845000  1.0
  C  C27  1  0.09356000  0.65904000  0.94848000  1.0
  C  C28  1  0.12248000  0.64824000  0.89698000  1.0
  C  C29  1  0.16852000  0.65021000  0.91859000  1.0
  C  C30  1  0.98008000  0.57657000  0.87379000  1.0
  C  C31  1  0.98656000  0.61020000  0.82975000  1.0
  C  C32  1  0.98262000  0.57649000  0.81808000  1.0
  C  C33  1  0.92852000  0.70590000  0.85369000  1.0
  C  C34  1  0.00662000  0.72694000  0.87172000  1.0
  C  C35  1  0.97892000  0.75213000  0.85305000  1.0
  C  C36  1  0.58768000  0.91979000  0.68941000  1.0
  C  C37  1  0.56196000  0.86658000  0.68733000  1.0
  C  C38  1  0.51452000  0.88707000  0.68837000  1.0
  C  C39  1  0.70514000  0.84625000  0.61054000  1.0
  C  C40  1  0.70484000  0.80287000  0.64524000  1.0
  C  C41  1  0.71058000  0.79066000  0.61184000  1.0
  C  C42  1  0.75724000  0.82620000  0.73809000  1.0
  C  C43  1  0.68534000  0.84925000  0.76238000  1.0
  C  C44  1  0.71394000  0.83010000  0.78683000  1.0
  C  C45  1  0.33188000  0.65972000  0.08130000  1.0
  C  C46  1  0.29782000  0.66997000  0.13169000  1.0
  C  C47  1  0.25514000  0.67269000  0.10773000  1.0
  C  C48  1  0.44084000  0.57760000  0.16554000  1.0
  C  C49  1  0.37296000  0.60245000  0.19237000  1.0
  C  C50  1  0.37588000  0.56846000  0.20324000  1.0
  C  C51  1  0.49334000  0.70189000  0.18492000  1.0
  C  C52  1  0.41220000  0.72320000  0.17356000  1.0
  C  C53  1  0.44184000  0.74697000  0.19287000  1.0
  C  C54  1  0.09398000  0.04420000  0.34190000  1.0
  C  C55  1  0.06660000  0.09708000  0.34445000  1.0
  C  C56  1  0.01982000  0.07606000  0.34297000  1.0
  C  C57  1  0.20530000  0.11829000  0.42293000  1.0
  C  C58  1  0.20540000  0.16214000  0.38882000  1.0
  C  C59  1  0.20868000  0.17395000  0.42250000  1.0
  C  C60  1  0.26270000  0.13996000  0.29577000  1.0
  C  C61  1  0.19200000  0.11637000  0.27069000  1.0
  C  C62  1  0.22098000  0.13567000  0.24655000  1.0
  C  C63  1  0.83910000  0.30310000  0.95023000  1.0
  C  C64  1  0.82424000  0.34100000  0.91068000  1.0
  C  C65  1  0.77844000  0.34028000  0.93242000  1.0
  C  C66  1  0.95970000  0.38775000  0.87701000  1.0
  C  C67  1  0.96466000  0.35242000  0.83425000  1.0
  C  C68  1  0.97010000  0.38572000  0.82171000  1.0
  C  C69  1  0.00178000  0.25758000  0.85842000  1.0
  C  C70  1  0.92558000  0.23698000  0.87970000  1.0
  C  C71  1  0.95186000  0.21125000  0.86089000  1.0
  C  C72  1  0.75352000  0.79478000  0.53658000  1.0
  C  C73  1  0.75848000  0.79441000  0.50045000  1.0
  C  C74  1  0.72560000  0.81672000  0.47996000  1.0
  C  C75  1  0.68744000  0.83930000  0.49627000  1.0
  C  C76  1  0.68236000  0.83963000  0.53238000  1.0
  C  C77  1  0.71548000  0.81744000  0.55291000  1.0
  C  C78  1  0.39286000  0.49124000  0.18287000  1.0
  C  C79  1  0.40804000  0.45621000  0.18295000  1.0
  C  C80  1  0.46426000  0.44647000  0.18827000  1.0
  C  C81  1  0.50526000  0.47226000  0.19317000  1.0
  C  C82  1  0.49024000  0.50733000  0.19240000  1.0
  C  C83  1  0.43392000  0.51705000  0.18743000  1.0
  C  C84  1  0.17752000  0.12326000  0.50054000  1.0
  C  C85  1  0.18020000  0.12312000  0.53676000  1.0
  C  C86  1  0.21592000  0.14623000  0.55435000  1.0
  C  C87  1  0.24882000  0.16956000  0.53505000  1.0
  C  C88  1  0.24634000  0.16963000  0.49881000  1.0
  C  C89  1  0.21074000  0.14643000  0.48117000  1.0
  C  C90  1  0.00992000  0.49834000  0.82457000  1.0
  C  C91  1  0.00726000  0.46211000  0.82538000  1.0
  C  C92  1  0.96922000  0.44516000  0.84760000  1.0
  C  C93  1  0.93374000  0.46520000  0.86886000  1.0
  C  C94  1  0.93672000  0.50139000  0.86820000  1.0
  C  C95  1  0.97486000  0.51828000  0.84608000  1.0
  C  C96  1  0.59416000  0.74751000  0.20594000  1.0
  C  C97  1  0.63754000  0.76629000  0.22169000  1.0
  C  C98  1  0.62608000  0.78911000  0.24929000  1.0
  C  C99  1  0.57050000  0.79181000  0.26155000  1.0
  C  C100  1  0.52728000  0.77270000  0.24610000  1.0
  C  C101  1  0.53838000  0.75081000  0.21772000  1.0
  C  C102  1  0.29448000  0.19537000  0.22026000  1.0
  C  C103  1  0.33642000  0.21417000  0.20316000  1.0
  C  C104  1  0.39340000  0.20962000  0.21196000  1.0
  C  C105  1  0.40732000  0.18622000  0.23862000  1.0
  C  C106  1  0.36540000  0.16719000  0.25552000  1.0
  C  C107  1  0.30852000  0.17135000  0.24633000  1.0
  C  C108  1  0.02648000  0.18125000  0.80297000  1.0
  C  C109  1  0.06746000  0.16244000  0.78495000  1.0
  C  C110  1  0.12496000  0.16805000  0.79152000  1.0
  C  C111  1  0.14056000  0.19316000  0.81616000  1.0
  C  C112  1  0.09964000  0.21177000  0.83435000  1.0
  C  C113  1  0.04210000  0.20591000  0.82808000  1.0
  C  C114  1  0.85912000  0.79960000  0.77943000  1.0
  C  C115  1  0.90084000  0.78064000  0.79658000  1.0
  C  C116  1  0.88650000  0.75683000  0.82277000  1.0
  C  C117  1  0.82936000  0.75180000  0.83087000  1.0
  C  C118  1  0.78762000  0.77055000  0.81352000  1.0
  C  C119  1  0.80206000  0.79496000  0.78790000  1.0
  C  C120  1  0.95548000  0.00937000  0.36214000  1.0
  C  C121  1  0.92218000  0.97950000  0.36150000  1.0
  C  C122  1  0.93526000  0.95196000  0.33894000  1.0
  C  C123  1  0.98238000  0.95496000  0.31708000  1.0
  C  C124  1  0.01586000  0.98478000  0.31788000  1.0
  C  C125  1  0.00268000  0.01226000  0.34040000  1.0
  C  C126  1  0.77802000  0.30414000  0.02033000  1.0
  C  C127  1  0.74482000  0.30234000  0.05019000  1.0
  C  C128  1  0.68638000  0.30801000  0.04850000  1.0
  C  C129  1  0.66146000  0.31319000  0.01576000  1.0
  C  C130  1  0.69448000  0.31401000  0.98576000  1.0
  C  C131  1  0.75338000  0.31067000  0.98774000  1.0
  C  C132  1  0.50814000  0.97859000  0.71262000  1.0
  C  C133  1  0.47388000  0.00807000  0.71321000  1.0
  C  C134  1  0.42636000  0.01026000  0.69159000  1.0
  C  C135  1  0.41362000  0.98230000  0.66951000  1.0
  C  C136  1  0.44780000  0.95279000  0.66902000  1.0
  C  C137  1  0.49544000  0.95069000  0.69051000  1.0
  C  C138  1  0.25778000  0.63845000  0.01944000  1.0
  C  C139  1  0.22668000  0.63623000  0.98874000  1.0
  C  C140  1  0.18332000  0.66003000  0.98192000  1.0
  C  C141  1  0.17210000  0.68641000  0.00608000  1.0
  C  C142  1  0.20340000  0.68878000  0.03668000  1.0
  C  C143  1  0.24628000  0.66466000  0.04382000  1.0
  Cd  Cd144  1  0.74400000  0.86865000  0.34587000  1.0
  Cd  Cd145  1  0.49866000  0.31413000  0.13574000  1.0
  Cd  Cd146  1  0.23280000  0.09193000  0.68751000  1.0
  Cd  Cd147  1  0.99296000  0.65209000  0.89817000  1.0
  Cd  Cd148  1  0.69148000  0.87166000  0.68578000  1.0
  Cd  Cd149  1  0.42342000  0.65219000  0.13815000  1.0
  Cd  Cd150  1  0.19616000  0.09365000  0.34720000  1.0
  Cd  Cd151  1  0.94416000  0.31309000  0.90322000  1.0
  F  F152  1  0.78736000  0.77385000  0.55568000  1.0
  F  F153  1  0.79690000  0.77309000  0.48553000  1.0
  F  F154  1  0.65380000  0.86034000  0.47714000  1.0
  F  F155  1  0.64384000  0.86093000  0.54722000  1.0
  F  F156  1  0.33834000  0.50006000  0.17729000  1.0
  F  F157  1  0.36782000  0.43168000  0.17829000  1.0
  F  F158  1  0.56002000  0.46346000  0.19765000  1.0
  F  F159  1  0.53048000  0.53186000  0.19696000  1.0
  F  F160  1  0.14118000  0.10143000  0.48445000  1.0
  F  F161  1  0.14664000  0.10104000  0.55471000  1.0
  F  F162  1  0.28496000  0.19145000  0.55126000  1.0
  F  F163  1  0.28028000  0.19154000  0.48091000  1.0
  F  F164  1  0.04828000  0.51393000  0.80370000  1.0
  F  F165  1  0.04332000  0.44360000  0.80536000  1.0
  F  F166  1  0.89500000  0.44979000  0.88959000  1.0
  F  F167  1  0.90126000  0.52003000  0.88851000  1.0
  F  F168  1  0.60652000  0.72728000  0.17818000  1.0
  F  F169  1  0.69088000  0.76215000  0.20989000  1.0
  F  F170  1  0.55732000  0.81409000  0.28754000  1.0
  F  F171  1  0.47436000  0.77568000  0.25892000  1.0
  F  F172  1  0.23996000  0.20083000  0.21142000  1.0
  F  F173  1  0.32132000  0.23583000  0.17704000  1.0
  F  F174  1  0.46164000  0.18189000  0.24849000  1.0
  F  F175  1  0.38082000  0.14372000  0.27994000  1.0
  F  F176  1  0.97144000  0.17555000  0.79563000  1.0
  F  F177  1  0.05074000  0.13789000  0.76196000  1.0
  F  F178  1  0.19562000  0.19996000  0.82246000  1.0
  F  F179  1  0.11644000  0.23463000  0.85900000  1.0
  F  F180  1  0.87484000  0.82346000  0.75546000  1.0
  F  F181  1  0.95538000  0.78545000  0.78741000  1.0
  F  F182  1  0.81390000  0.72968000  0.85651000  1.0
  F  F183  1  0.73294000  0.76467000  0.82166000  1.0
  F  F184  1  0.94278000  0.03499000  0.38495000  1.0
  F  F185  1  0.87834000  0.97700000  0.38387000  1.0
  F  F186  1  0.99516000  0.92941000  0.29420000  1.0
  F  F187  1  0.06026000  0.98724000  0.29592000  1.0
  F  F188  1  0.83460000  0.30139000  0.02384000  1.0
  F  F189  1  0.77018000  0.29554000  0.08097000  1.0
  F  F190  1  0.60554000  0.31940000  0.01273000  1.0
  F  F191  1  0.66872000  0.31864000  0.95471000  1.0
  F  F192  1  0.55286000  0.97688000  0.73441000  1.0
  F  F193  1  0.48628000  0.03407000  0.73565000  1.0
  F  F194  1  0.36924000  0.98405000  0.64746000  1.0
  F  F195  1  0.43546000  0.92676000  0.64659000  1.0
  F  F196  1  0.29744000  0.61401000  0.02598000  1.0
  F  F197  1  0.23734000  0.60988000  0.96637000  1.0
  F  F198  1  0.13158000  0.71034000  0.99968000  1.0
  F  F199  1  0.19254000  0.71510000  0.05905000  1.0
  H  H200  1  0.81692000  0.94109000  0.34344000  1.0
  H  H201  1  0.87356000  0.83838000  0.33703000  1.0
  H  H202  1  0.96288000  0.87995000  0.33443000  1.0
  H  H203  1  0.73094000  0.87118000  0.43042000  1.0
  H  H204  1  0.74474000  0.78467000  0.36515000  1.0
  H  H205  1  0.73552000  0.76205000  0.43024000  1.0
  H  H206  1  0.64946000  0.81260000  0.31819000  1.0
  H  H207  1  0.77698000  0.86323000  0.26291000  1.0
  H  H208  1  0.71794000  0.82531000  0.21831000  1.0
  H  H209  1  0.57150000  0.29187000  0.06545000  1.0
  H  H210  1  0.62484000  0.33904000  0.15755000  1.0
  H  H211  1  0.71168000  0.33694000  0.11463000  1.0
  H  H212  1  0.44640000  0.39316000  0.13906000  1.0
  H  H213  1  0.54572000  0.34062000  0.21191000  1.0
  H  H214  1  0.52924000  0.40514000  0.23472000  1.0
  H  H215  1  0.40064000  0.27827000  0.18434000  1.0
  H  H216  1  0.55482000  0.23725000  0.15133000  1.0
  H  H217  1  0.50136000  0.18851000  0.18733000  1.0
  H  H218  1  0.30762000  0.01984000  0.68880000  1.0
  H  H219  1  0.36174000  0.12320000  0.69281000  1.0
  H  H220  1  0.45226000  0.08255000  0.69436000  1.0
  H  H221  1  0.22276000  0.09100000  0.60288000  1.0
  H  H222  1  0.22686000  0.17640000  0.67009000  1.0
  H  H223  1  0.21904000  0.20011000  0.60530000  1.0
  H  H224  1  0.13528000  0.14301000  0.72199000  1.0
  H  H225  1  0.28080000  0.10106000  0.76677000  1.0
  H  H226  1  0.22688000  0.13707000  0.81527000  1.0
  H  H227  1  0.06556000  0.66341000  0.97018000  1.0
  H  H228  1  0.12290000  0.64283000  0.86947000  1.0
  H  H229  1  0.21210000  0.64694000  0.91117000  1.0
  H  H230  1  0.97916000  0.56775000  0.90044000  1.0
  H  H231  1  0.99088000  0.63323000  0.81397000  1.0
  H  H232  1  0.98262000  0.56806000  0.79131000  1.0
  H  H233  1  0.89454000  0.68777000  0.84926000  1.0
  H  H234  1  0.04666000  0.72962000  0.88476000  1.0
  H  H235  1  0.99300000  0.77852000  0.84909000  1.0
  H  H236  1  0.61428000  0.94256000  0.68958000  1.0
  H  H237  1  0.56324000  0.83857000  0.68607000  1.0
  H  H238  1  0.47138000  0.87812000  0.68842000  1.0
  H  H239  1  0.70426000  0.87273000  0.60124000  1.0
  H  H240  1  0.70278000  0.78748000  0.66865000  1.0
  H  H241  1  0.71342000  0.76374000  0.60408000  1.0
  H  H242  1  0.78762000  0.81916000  0.71842000  1.0
  H  H243  1  0.64776000  0.86448000  0.76657000  1.0
  H  H244  1  0.70326000  0.82791000  0.81402000  1.0
  H  H245  1  0.36166000  0.65340000  0.06105000  1.0
  H  H246  1  0.29408000  0.67301000  0.15948000  1.0
  H  H247  1  0.21136000  0.67794000  0.11330000  1.0
  H  H248  1  0.47434000  0.57306000  0.14708000  1.0
  H  H249  1  0.34198000  0.62146000  0.20010000  1.0
  H  H250  1  0.34806000  0.55580000  0.22150000  1.0
  H  H251  1  0.52856000  0.68414000  0.18539000  1.0
  H  H252  1  0.37048000  0.72660000  0.16294000  1.0
  H  H253  1  0.42770000  0.77270000  0.19989000  1.0
  H  H254  1  0.12124000  0.02173000  0.34173000  1.0
  H  H255  1  0.06698000  0.12507000  0.34616000  1.0
  H  H256  1  0.97640000  0.08449000  0.34295000  1.0
  H  H257  1  0.20472000  0.09168000  0.43184000  1.0
  H  H258  1  0.20398000  0.17783000  0.36559000  1.0
  H  H259  1  0.20990000  0.20079000  0.43066000  1.0
  H  H260  1  0.29240000  0.14718000  0.31577000  1.0
  H  H261  1  0.15490000  0.10080000  0.26606000  1.0
  H  H262  1  0.21112000  0.13767000  0.21923000  1.0
  H  H263  1  0.86042000  0.28376000  0.96571000  1.0
  H  H264  1  0.83082000  0.35854000  0.88918000  1.0
  H  H265  1  0.74270000  0.35760000  0.93113000  1.0
  H  H266  1  0.95560000  0.39740000  0.90324000  1.0
  H  H267  1  0.96440000  0.32878000  0.81915000  1.0
  H  H268  1  0.97458000  0.39312000  0.79478000  1.0
  H  H269  1  0.03524000  0.27562000  0.85240000  1.0
  H  H270  1  0.88692000  0.23458000  0.89429000  1.0
  H  H271  1  0.93780000  0.18469000  0.85829000  1.0
  N  N272  1  0.90126000  0.92105000  0.33849000  1.0
  N  N273  1  0.82666000  0.88594000  0.34093000  1.0
  N  N274  1  0.73114000  0.81665000  0.44281000  1.0
  N  N275  1  0.73848000  0.83535000  0.38823000  1.0
  N  N276  1  0.67010000  0.81043000  0.26370000  1.0
  N  N277  1  0.71956000  0.84281000  0.30086000  1.0
  N  N278  1  0.65370000  0.31096000  0.07994000  1.0
  N  N279  1  0.58046000  0.31342000  0.11627000  1.0
  N  N280  1  0.47986000  0.41051000  0.18797000  1.0
  N  N281  1  0.49352000  0.35650000  0.16915000  1.0
  N  N282  1  0.43694000  0.22773000  0.19326000  1.0
  N  N283  1  0.48196000  0.26835000  0.16263000  1.0
  N  N284  1  0.39158000  0.04083000  0.69182000  1.0
  N  N285  1  0.31596000  0.07513000  0.69021000  1.0
  N  N286  1  0.21912000  0.14571000  0.59160000  1.0
  N  N287  1  0.22522000  0.12609000  0.64592000  1.0
  N  N288  1  0.16728000  0.14766000  0.77418000  1.0
  N  N289  1  0.21260000  0.11698000  0.73376000  1.0
  N  N290  1  0.15006000  0.65703000  0.95092000  1.0
  N  N291  1  0.07568000  0.65369000  0.91582000  1.0
  N  N292  1  0.97852000  0.55549000  0.84591000  1.0
  N  N293  1  0.98502000  0.61008000  0.86463000  1.0
  N  N294  1  0.92976000  0.73882000  0.84176000  1.0
  N  N295  1  0.97490000  0.69808000  0.87212000  1.0
  N  N296  1  0.53094000  0.92050000  0.68969000  1.0
  N  N297  1  0.60762000  0.88717000  0.68792000  1.0
  N  N298  1  0.71070000  0.81806000  0.59012000  1.0
  N  N299  1  0.70154000  0.83769000  0.64428000  1.0
  N  N300  1  0.75918000  0.81564000  0.77146000  1.0
  N  N301  1  0.71264000  0.84681000  0.73194000  1.0
  N  N302  1  0.27672000  0.66619000  0.07606000  1.0
  N  N303  1  0.34578000  0.66188000  0.11507000  1.0
  N  N304  1  0.41864000  0.55305000  0.18631000  1.0
  N  N305  1  0.41356000  0.60803000  0.16868000  1.0
  N  N306  1  0.49290000  0.73352000  0.20002000  1.0
  N  N307  1  0.44454000  0.69503000  0.16856000  1.0
  N  N308  1  0.03728000  0.04284000  0.34137000  1.0
  N  N309  1  0.11292000  0.07704000  0.34385000  1.0
  N  N310  1  0.20854000  0.14626000  0.44385000  1.0
  N  N311  1  0.20336000  0.12728000  0.38924000  1.0
  N  N312  1  0.26548000  0.15048000  0.26240000  1.0
  N  N313  1  0.21830000  0.11904000  0.30144000  1.0
  N  N314  1  0.78778000  0.31644000  0.95740000  1.0
  N  N315  1  0.86230000  0.31785000  0.92199000  1.0
  N  N316  1  0.96684000  0.40786000  0.84872000  1.0
  N  N317  1  0.95822000  0.35384000  0.86888000  1.0
  N  N318  1  0.99988000  0.22432000  0.84760000  1.0
  N  N319  1  0.95708000  0.26590000  0.87813000  1.0
