# generated using pymatgen
data_CoH4C9O5
_symmetry_space_group_name_H-M   'P 1'
_cell_length_a   20.74845000
_cell_length_b   22.37225000
_cell_length_c   36.05310000
_cell_angle_alpha   93.84500000
_cell_angle_beta   90.00000000
_cell_angle_gamma   90.00000000
_symmetry_Int_Tables_number   1
_chemical_formula_structural   CoH4C9O5
_chemical_formula_sum   'Co24 H96 C216 O120'
_cell_volume   16697.80112328
_cell_formula_units_Z   24
loop_
 _symmetry_equiv_pos_site_id
 _symmetry_equiv_pos_as_xyz
  1  'x, y, z'
loop_
 _atom_site_type_symbol
 _atom_site_label
 _atom_site_symmetry_multiplicity
 _atom_site_fract_x
 _atom_site_fract_y
 _atom_site_fract_z
 _atom_site_occupancy
  C  C0  1  0.41231000  0.25281000  0.10377000  1.0
  C  C1  1  0.40694000  0.16007000  0.22071000  1.0
  C  C2  1  0.26600000  0.20997000  0.19071500  1.0
  C  C3  1  0.46372000  0.37668000  0.16181000  1.0
  C  C4  1  0.29058000  0.35117000  0.22515000  1.0
  C  C5  1  0.46582000  0.30437000  0.26185500  1.0
  C  C6  1  0.40663000  0.25290000  0.91606500  1.0
  C  C7  1  0.52435000  0.33105000  0.84691000  1.0
  C  C8  1  0.32214000  0.32714000  0.81417500  1.0
  C  C9  1  0.42582000  0.10952000  0.86456500  1.0
  C  C10  1  0.33752000  0.18234000  0.77203500  1.0
  C  C11  1  0.55048000  0.20449000  0.78963500  1.0
  C  C12  1  0.64727000  0.61048000  0.86708500  1.0
  C  C13  1  0.51373000  0.69701000  0.77412500  1.0
  C  C14  1  0.67560000  0.64827000  0.75448000  1.0
  C  C15  1  0.64669000  0.76679000  0.89181500  1.0
  C  C16  1  0.76754000  0.76382000  0.79785000  1.0
  C  C17  1  0.55226000  0.82755000  0.83141500  1.0
  C  C18  1  0.52562000  0.89642000  0.15076000  1.0
  C  C19  1  0.48271000  0.74665000  0.20425000  1.0
  C  C20  1  0.63465000  0.83972000  0.24072500  1.0
  C  C21  1  0.59724000  0.80117000  0.07765000  1.0
  C  C22  1  0.72009000  0.73449000  0.18414500  1.0
  C  C23  1  0.58400000  0.65181000  0.15055500  1.0
  C  C24  1  0.88332000  0.36109000  0.59494000  1.0
  C  C25  1  0.95000000  0.22658000  0.68030500  1.0
  C  C26  1  0.79762000  0.31581000  0.69441000  1.0
  C  C27  1  0.02146000  0.43415000  0.63382500  1.0
  C  C28  1  0.88782000  0.41585000  0.74148500  1.0
  C  C29  1  0.03964000  0.33036000  0.72571000  1.0
  C  C30  1  0.88929000  0.22957000  0.41878000  1.0
  C  C31  1  0.93247000  0.31226000  0.31681000  1.0
  C  C32  1  0.75485000  0.22402000  0.32324000  1.0
  C  C33  1  0.96453000  0.09583000  0.37585000  1.0
  C  C34  1  0.81911000  0.08192000  0.29478000  1.0
  C  C35  1  0.00383000  0.17367000  0.27962500  1.0
  C  C36  1  0.01598000  0.59884000  0.38126500  1.0
  C  C37  1  0.93841000  0.69448000  0.31633500  1.0
  C  C38  1  0.09853000  0.56076000  0.28738000  1.0
  C  C39  1  0.12091000  0.72973000  0.40847500  1.0
  C  C40  1  0.19284000  0.68819000  0.28095000  1.0
  C  C41  1  0.04731000  0.80582000  0.33612500  1.0
  C  C42  1  0.10651000  0.96038000  0.65882000  1.0
  C  C43  1  0.05721000  0.84204000  0.73349500  1.0
  C  C44  1  0.21494000  0.90914000  0.73368000  1.0
  C  C45  1  0.12336000  0.83750000  0.58939500  1.0
  C  C46  1  0.25741000  0.76150000  0.68398000  1.0
  C  C47  1  0.11093000  0.71505000  0.68384500  1.0
  C  C48  1  0.11430000  0.50518000  0.26508500  1.0
  C  C49  1  0.13804000  0.45593000  0.28287500  1.0
  C  C50  1  0.17282000  0.41122000  0.26306500  1.0
  C  C51  1  0.18632000  0.41569000  0.22510500  1.0
  C  C52  1  0.15601000  0.46139000  0.20652000  1.0
  C  C53  1  0.12004000  0.50570000  0.22633500  1.0
  C  C54  1  0.23638000  0.37782000  0.20536500  1.0
  C  C55  1  0.23375000  0.97025000  0.74590500  1.0
  C  C56  1  0.29871000  0.98391000  0.75303000  1.0
  C  C57  1  0.31978000  0.04331000  0.75406000  1.0
  C  C58  1  0.27643000  0.08921000  0.74670500  1.0
  C  C59  1  0.21095000  0.07581000  0.74143000  1.0
  C  C60  1  0.18958000  0.01665000  0.74163000  1.0
  C  C61  1  0.30029000  0.15037000  0.74232500  1.0
  C  C62  1  0.83974000  0.46533000  0.74050000  1.0
  C  C63  1  0.78527000  0.46905000  0.76392000  1.0
  C  C64  1  0.73878000  0.51431000  0.76044000  1.0
  C  C65  1  0.74561000  0.55590000  0.73309500  1.0
  C  C66  1  0.80051000  0.55269000  0.71038500  1.0
  C  C67  1  0.84724000  0.50872000  0.71439000  1.0
  C  C68  1  0.69547000  0.60137000  0.72601000  1.0
  C  C69  1  0.78607000  0.02750000  0.27890000  1.0
  C  C70  1  0.80200000  0.97206000  0.29269000  1.0
  C  C71  1  0.76020000  0.92341000  0.28783000  1.0
  C  C72  1  0.70203000  0.92893000  0.26871000  1.0
  C  C73  1  0.68850000  0.98238000  0.25188000  1.0
  C  C74  1  0.73047000  0.03156000  0.25690500  1.0
  C  C75  1  0.65221000  0.88242000  0.27195500  1.0
  C  C76  1  0.05580000  0.15983000  0.25277000  1.0
  C  C77  1  0.11796000  0.14749000  0.26535000  1.0
  C  C78  1  0.16954000  0.14381000  0.24048000  1.0
  C  C79  1  0.16005000  0.15504000  0.20296000  1.0
  C  C80  1  0.09699000  0.16225000  0.18989500  1.0
  C  C81  1  0.04509000  0.16426000  0.21461500  1.0
  C  C82  1  0.21508000  0.16693000  0.17830000  1.0
  C  C83  1  0.10178000  0.34459000  0.74402500  1.0
  C  C84  1  0.10377000  0.38817000  0.77388500  1.0
  C  C85  1  0.16033000  0.39827000  0.79437000  1.0
  C  C86  1  0.21565000  0.36375000  0.78615500  1.0
  C  C87  1  0.21374000  0.32020000  0.75606500  1.0
  C  C88  1  0.15738000  0.31110000  0.73492000  1.0
  C  C89  1  0.27562000  0.37518000  0.80816000  1.0
  C  C90  1  0.83180000  0.78739000  0.79068000  1.0
  C  C91  1  0.83787000  0.84887000  0.78595500  1.0
  C  C92  1  0.89171000  0.87061000  0.76850500  1.0
  C  C93  1  0.94072000  0.83138000  0.75596500  1.0
  C  C94  1  0.93814000  0.77089000  0.76412000  1.0
  C  C95  1  0.88357000  0.74884000  0.78150000  1.0
  C  C96  1  0.98809000  0.85241000  0.72961500  1.0
  C  C97  1  0.90104000  0.70120000  0.28206500  1.0
  C  C98  1  0.85039000  0.74269000  0.28150500  1.0
  C  C99  1  0.81358000  0.74718000  0.24933500  1.0
  C  C100  1  0.82636000  0.70982000  0.21717500  1.0
  C  C101  1  0.87777000  0.66909000  0.21766500  1.0
  C  C102  1  0.91451000  0.66465000  0.24981500  1.0
  C  C103  1  0.78766000  0.71422000  0.18275000  1.0
  C  C104  1  0.60319000  0.21737000  0.76364500  1.0
  C  C105  1  0.65780000  0.24936000  0.77676500  1.0
  C  C106  1  0.69974000  0.27505000  0.75196500  1.0
  C  C107  1  0.68898000  0.26816000  0.71336000  1.0
  C  C108  1  0.63613000  0.23354000  0.70024000  1.0
  C  C109  1  0.59367000  0.20855000  0.72507500  1.0
  C  C110  1  0.72939000  0.30034000  0.68679000  1.0
  C  C111  1  0.69106000  0.25122000  0.31869500  1.0
  C  C112  1  0.63629000  0.21547000  0.31154500  1.0
  C  C113  1  0.57835000  0.24155000  0.30081000  1.0
  C  C114  1  0.57423000  0.30381000  0.29779500  1.0
  C  C115  1  0.62864000  0.33947000  0.30618500  1.0
  C  C116  1  0.68667000  0.31334000  0.31599000  1.0
  C  C117  1  0.51272000  0.33277000  0.28819000  1.0
  C  C118  1  0.25111000  0.69922000  0.25867000  1.0
  C  C119  1  0.24635000  0.69866000  0.21981000  1.0
  C  C120  1  0.30023000  0.70973000  0.19817500  1.0
  C  C121  1  0.36057000  0.72250000  0.21469000  1.0
  C  C122  1  0.36528000  0.72309000  0.25377000  1.0
  C  C123  1  0.31128000  0.71082000  0.27544500  1.0
  C  C124  1  0.41612000  0.73782000  0.19053000  1.0
  C  C125  1  0.45923000  0.68356000  0.74882500  1.0
  C  C126  1  0.46965000  0.68473000  0.71042000  1.0
  C  C127  1  0.41796000  0.69001000  0.68620500  1.0
  C  C128  1  0.35486000  0.69528000  0.69996000  1.0
  C  C129  1  0.34385000  0.68852000  0.73799500  1.0
  C  C130  1  0.39585000  0.68263000  0.76232000  1.0
  C  C131  1  0.30285000  0.71192000  0.67433500  1.0
  C  C132  1  0.42542000  0.24256000  0.06380500  1.0
  C  C133  1  0.47213000  0.27808000  0.04773500  1.0
  C  C134  1  0.46859000  0.28858000  0.00994500  1.0
  C  C135  1  0.41945000  0.26226000  0.98761000  1.0
  C  C136  1  0.37703000  0.22171000  0.00284500  1.0
  C  C137  1  0.37941000  0.21260000  0.04085500  1.0
  C  C138  1  0.40287000  0.28761000  0.95208000  1.0
  C  C139  1  0.61386000  0.80278000  0.03783500  1.0
  C  C140  1  0.56844000  0.78726000  0.00984500  1.0
  C  C141  1  0.58508000  0.78867000  0.97225000  1.0
  C  C142  1  0.64763000  0.80521000  0.96203500  1.0
  C  C143  1  0.69265000  0.82098000  0.99012000  1.0
  C  C144  1  0.67609000  0.81969000  0.02748500  1.0
  C  C145  1  0.66747000  0.80911000  0.92271000  1.0
  C  C146  1  0.87925000  0.25787000  0.45671000  1.0
  C  C147  1  0.93142000  0.27852000  0.47908000  1.0
  C  C148  1  0.92061000  0.30750000  0.51426000  1.0
  C  C149  1  0.85745000  0.31653000  0.52746000  1.0
  C  C150  1  0.80574000  0.29397000  0.50562500  1.0
  C  C151  1  0.81644000  0.26487000  0.47083000  1.0
  C  C152  1  0.84316000  0.35610000  0.56106000  1.0
  C  C153  1  0.12396000  0.82469000  0.54874500  1.0
  C  C154  1  0.08990000  0.77567000  0.53212500  1.0
  C  C155  1  0.10005000  0.75733000  0.49461500  1.0
  C  C156  1  0.14335000  0.78866000  0.47292500  1.0
  C  C157  1  0.17447000  0.83965000  0.48942000  1.0
  C  C158  1  0.16530000  0.85713000  0.52687000  1.0
  C  C159  1  0.16220000  0.76677000  0.43445000  1.0
  C  C160  1  0.49011000  0.95215000  0.16117000  1.0
  C  C161  1  0.42303000  0.95021000  0.16632000  1.0
  C  C162  1  0.39099000  0.99847000  0.18445000  1.0
  C  C163  1  0.42513000  0.04993000  0.19712500  1.0
  C  C164  1  0.49120000  0.05396000  0.18932500  1.0
  C  C165  1  0.52354000  0.00530000  0.17160000  1.0
  C  C166  1  0.39304000  0.09585000  0.22196000  1.0
  C  C167  1  0.55831000  0.38856000  0.85635500  1.0
  C  C168  1  0.56015000  0.43373000  0.83104000  1.0
  C  C169  1  0.59245000  0.48773000  0.83997000  1.0
  C  C170  1  0.62394000  0.49779000  0.87438000  1.0
  C  C171  1  0.62200000  0.45269000  0.89966500  1.0
  C  C172  1  0.58928000  0.39895000  0.89090000  1.0
  C  C173  1  0.66225000  0.55325000  0.88326000  1.0
  C  C174  1  0.52314000  0.88617000  0.84394500  1.0
  C  C175  1  0.48661000  0.89104000  0.87669000  1.0
  C  C176  1  0.45587000  0.94464000  0.88796500  1.0
  C  C177  1  0.45998000  0.99515000  0.86670500  1.0
  C  C178  1  0.49842000  0.99113000  0.83448500  1.0
  C  C179  1  0.53012000  0.93722000  0.82338000  1.0
  C  C180  1  0.41788000  0.04797000  0.87710000  1.0
  C  C181  1  0.49863000  0.43242000  0.15545000  1.0
  C  C182  1  0.46724000  0.48801000  0.15989000  1.0
  C  C183  1  0.50004000  0.54068000  0.15307500  1.0
  C  C184  1  0.56437000  0.53852000  0.14083500  1.0
  C  C185  1  0.59575000  0.48290000  0.13645500  1.0
  C  C186  1  0.56344000  0.43038000  0.14419500  1.0
  C  C187  1  0.59748000  0.59371000  0.13068500  1.0
  C  C188  1  0.08358000  0.02303000  0.66300000  1.0
  C  C189  1  0.01902000  0.03515000  0.67316500  1.0
  C  C190  1  0.99534000  0.09371000  0.67550500  1.0
  C  C191  1  0.03563000  0.14129000  0.66742500  1.0
  C  C192  1  0.10101000  0.12953000  0.65916000  1.0
  C  C193  1  0.12485000  0.07101000  0.65711500  1.0
  C  C194  1  0.00868000  0.20123000  0.66165000  1.0
  C  C195  1  0.99219000  0.53693000  0.37154500  1.0
  C  C196  1  0.92726000  0.52870000  0.36126500  1.0
  C  C197  1  0.90616000  0.47438000  0.34420500  1.0
  C  C198  1  0.94892000  0.42631000  0.33754500  1.0
  C  C199  1  0.01248000  0.43226000  0.35073500  1.0
  C  C200  1  0.03408000  0.48736000  0.36748500  1.0
  C  C201  1  0.92980000  0.37688000  0.31019000  1.0
  C  C202  1  0.99275000  0.03495000  0.37525000  1.0
  C  C203  1  0.95289000  0.98394000  0.37230000  1.0
  C  C204  1  0.97844000  0.92774000  0.36057000  1.0
  C  C205  1  0.04429000  0.92178000  0.35189000  1.0
  C  C206  1  0.08476000  0.97175000  0.35828000  1.0
  C  C207  1  0.05937000  0.02760000  0.36985500  1.0
  C  C208  1  0.07019000  0.86730000  0.33114500  1.0
  C  C209  1  0.10344000  0.65265000  0.66911500  1.0
  C  C210  1  0.08488000  0.60729000  0.69194000  1.0
  C  C211  1  0.07290000  0.54939000  0.67633500  1.0
  C  C212  1  0.07987000  0.53640000  0.63781500  1.0
  C  C213  1  0.10024000  0.58152000  0.61539500  1.0
  C  C214  1  0.11160000  0.63902000  0.63081000  1.0
  C  C215  1  0.06982000  0.47555000  0.62051500  1.0
  Co  Co216  1  0.34964000  0.30731000  0.16101000  1.0
  Co  Co217  1  0.34028000  0.26176000  0.25116000  1.0
  Co  Co218  1  0.46110000  0.25672000  0.18160000  1.0
  Co  Co219  1  0.34854000  0.21462000  0.84773000  1.0
  Co  Co220  1  0.43637000  0.27055000  0.79203000  1.0
  Co  Co221  1  0.50211000  0.21162000  0.86438000  1.0
  Co  Co222  1  0.67356000  0.70105000  0.82522000  1.0
  Co  Co223  1  0.63417000  0.76359000  0.77856000  1.0
  Co  Co224  1  0.55957000  0.70187000  0.84876500  1.0
  Co  Co225  1  0.64078000  0.82753000  0.15604500  1.0
  Co  Co226  1  0.59599000  0.72182000  0.21963000  1.0
  Co  Co227  1  0.53222000  0.77365000  0.13648500  1.0
  Co  Co228  1  0.90013000  0.40539000  0.66635500  1.0
  Co  Co229  1  0.90943000  0.29775000  0.73617500  1.0
  Co  Co230  1  0.97688000  0.32589000  0.64650000  1.0
  Co  Co231  1  0.83896000  0.14635000  0.36360000  1.0
  Co  Co232  1  0.87276000  0.20048000  0.28746000  1.0
  Co  Co233  1  0.97445000  0.21526000  0.35535500  1.0
  Co  Co234  1  0.13313000  0.64225000  0.34702000  1.0
  Co  Co235  1  0.06341000  0.68255000  0.29183000  1.0
  Co  Co236  1  0.99439000  0.72011000  0.38044000  1.0
  Co  Co237  1  0.20074000  0.86894000  0.65666500  1.0
  Co  Co238  1  0.16428000  0.79737000  0.73974000  1.0
  Co  Co239  1  0.08246000  0.83796000  0.65877000  1.0
  H  H240  1  0.13401000  0.45406000  0.31268000  1.0
  H  H241  1  0.19108000  0.37519000  0.27840500  1.0
  H  H242  1  0.16412000  0.46568000  0.17714500  1.0
  H  H243  1  0.10224000  0.54319000  0.21180000  1.0
  H  H244  1  0.33360000  0.94843000  0.75574000  1.0
  H  H245  1  0.37052000  0.05293000  0.75827500  1.0
  H  H246  1  0.17677000  0.11083000  0.73614000  1.0
  H  H247  1  0.13935000  0.00669000  0.73591500  1.0
  H  H248  1  0.77797000  0.43647000  0.78441500  1.0
  H  H249  1  0.69670000  0.51553000  0.77820000  1.0
  H  H250  1  0.80726000  0.58442000  0.68929500  1.0
  H  H251  1  0.88887000  0.50832000  0.69638500  1.0
  H  H252  1  0.84466000  0.96756000  0.30960500  1.0
  H  H253  1  0.77148000  0.88251000  0.30094000  1.0
  H  H254  1  0.64347000  0.98749000  0.23722500  1.0
  H  H255  1  0.71660000  0.07392000  0.24638500  1.0
  H  H256  1  0.12689000  0.14227000  0.29456500  1.0
  H  H257  1  0.21705000  0.13448000  0.25101000  1.0
  H  H258  1  0.08829000  0.17025000  0.16102000  1.0
  H  H259  1  0.99734000  0.17341000  0.20425000  1.0
  H  H260  1  0.06120000  0.41418000  0.78157000  1.0
  H  H261  1  0.16037000  0.43230000  0.81720500  1.0
  H  H262  1  0.25592000  0.29358000  0.74864500  1.0
  H  H263  1  0.15657000  0.27664000  0.71233500  1.0
  H  H264  1  0.79882000  0.87957000  0.79330500  1.0
  H  H265  1  0.89332000  0.91752000  0.76277500  1.0
  H  H266  1  0.97552000  0.73991000  0.75435500  1.0
  H  H267  1  0.87957000  0.70120000  0.78471000  1.0
  H  H268  1  0.83918000  0.77173000  0.30590000  1.0
  H  H269  1  0.77567000  0.78043000  0.24964500  1.0
  H  H270  1  0.88904000  0.63997000  0.19331500  1.0
  H  H271  1  0.95283000  0.63188000  0.24948000  1.0
  H  H272  1  0.66572000  0.25836000  0.80630500  1.0
  H  H273  1  0.73842000  0.30306000  0.76337000  1.0
  H  H274  1  0.62640000  0.22730000  0.67072000  1.0
  H  H275  1  0.55172000  0.18458000  0.71410500  1.0
  H  H276  1  0.63904000  0.16729000  0.31274500  1.0
  H  H277  1  0.53677000  0.21312000  0.29515500  1.0
  H  H278  1  0.62669000  0.38757000  0.30437500  1.0
  H  H279  1  0.72856000  0.34169000  0.32096000  1.0
  H  H280  1  0.20080000  0.68932000  0.20592000  1.0
  H  H281  1  0.29422000  0.70888000  0.16831000  1.0
  H  H282  1  0.40993000  0.73420000  0.26799000  1.0
  H  H283  1  0.31626000  0.71198000  0.30538500  1.0
  H  H284  1  0.51821000  0.68534000  0.69937500  1.0
  H  H285  1  0.42778000  0.69412000  0.65696500  1.0
  H  H286  1  0.29546000  0.68968000  0.74918500  1.0
  H  H287  1  0.38669000  0.68191000  0.79186500  1.0
  H  H288  1  0.50691000  0.30293000  0.06508000  1.0
  H  H289  1  0.50112000  0.32075000  0.99881000  1.0
  H  H290  1  0.33806000  0.20185000  0.98624500  1.0
  H  H291  1  0.34197000  0.18623000  0.05288000  1.0
  H  H292  1  0.51987000  0.77450000  0.01693000  1.0
  H  H293  1  0.54838000  0.77838000  0.95152000  1.0
  H  H294  1  0.74119000  0.83411000  0.98317000  1.0
  H  H295  1  0.71236000  0.83188000  0.04822500  1.0
  H  H296  1  0.98048000  0.27346000  0.46913500  1.0
  H  H297  1  0.96133000  0.32522000  0.53023500  1.0
  H  H298  1  0.75650000  0.30025000  0.51509500  1.0
  H  H299  1  0.77504000  0.24917000  0.45468000  1.0
  H  H300  1  0.05858000  0.74928000  0.54865500  1.0
  H  H301  1  0.07662000  0.71684000  0.48352500  1.0
  H  H302  1  0.20786000  0.86513000  0.47361000  1.0
  H  H303  1  0.19204000  0.89518000  0.53899500  1.0
  H  H304  1  0.39574000  0.91003000  0.15856000  1.0
  H  H305  1  0.33985000  0.99464000  0.18989500  1.0
  H  H306  1  0.51873000  0.09304000  0.19906500  1.0
  H  H307  1  0.57524000  0.00819000  0.16798500  1.0
  H  H308  1  0.53689000  0.42737000  0.80418500  1.0
  H  H309  1  0.59405000  0.52085000  0.81944000  1.0
  H  H310  1  0.64595000  0.45892000  0.92633500  1.0
  H  H311  1  0.58891000  0.36538000  0.91117500  1.0
  H  H312  1  0.48122000  0.85312000  0.89360500  1.0
  H  H313  1  0.42727000  0.94591000  0.91313000  1.0
  H  H314  1  0.50205000  0.02852000  0.81706000  1.0
  H  H315  1  0.55812000  0.93491000  0.79798500  1.0
  H  H316  1  0.41736000  0.49079000  0.16871000  1.0
  H  H317  1  0.47442000  0.58289000  0.15632500  1.0
  H  H318  1  0.64528000  0.48005000  0.12702500  1.0
  H  H319  1  0.58867000  0.38803000  0.14042000  1.0
  H  H320  1  0.98612000  0.99923000  0.67862000  1.0
  H  H321  1  0.94477000  0.10119000  0.68162000  1.0
  H  H322  1  0.13335000  0.16557000  0.65302500  1.0
  H  H323  1  0.17495000  0.06325000  0.64990500  1.0
  H  H324  1  0.89336000  0.56553000  0.36393500  1.0
  H  H325  1  0.85700000  0.47107000  0.33415000  1.0
  H  H326  1  0.04658000  0.39605000  0.34555000  1.0
  H  H327  1  0.08428000  0.49205000  0.37532500  1.0
  H  H328  1  0.90126000  0.98819000  0.37598000  1.0
  H  H329  1  0.94583000  0.89030000  0.35556000  1.0
  H  H330  1  0.13583000  0.96840000  0.35224000  1.0
  H  H331  1  0.09154000  0.06581000  0.37213000  1.0
  H  H332  1  0.07830000  0.61682000  0.72154500  1.0
  H  H333  1  0.05915000  0.51487000  0.69443500  1.0
  H  H334  1  0.10675000  0.57251000  0.58573000  1.0
  H  H335  1  0.12669000  0.67292000  0.61253500  1.0
  O  O336  1  0.40110000  0.37415000  0.15587500  1.0
  O  O337  1  0.28334000  0.32591000  0.25564000  1.0
  O  O338  1  0.48729000  0.27074000  0.23245000  1.0
  O  O339  1  0.45493000  0.23799000  0.12907500  1.0
  O  O340  1  0.39277000  0.19462000  0.25048000  1.0
  O  O341  1  0.29455000  0.24012000  0.16452000  1.0
  O  O342  1  0.36132000  0.28441000  0.11278500  1.0
  O  O343  1  0.27700000  0.21712000  0.22690500  1.0
  O  O344  1  0.42835000  0.18074000  0.18955500  1.0
  O  O345  1  0.49629000  0.33042000  0.17254000  1.0
  O  O346  1  0.40506000  0.30800000  0.27224500  1.0
  O  O347  1  0.34195000  0.33029000  0.20875000  1.0
  O  O348  1  0.37573000  0.14550000  0.87029500  1.0
  O  O349  1  0.37216000  0.22915000  0.76412000  1.0
  O  O350  1  0.56202000  0.20682000  0.82545500  1.0
  O  O351  1  0.45566000  0.21679000  0.90911500  1.0
  O  O352  1  0.50303000  0.31985000  0.81252000  1.0
  O  O353  1  0.30205000  0.27795000  0.82855500  1.0
  O  O354  1  0.36394000  0.26346000  0.89048000  1.0
  O  O355  1  0.38127000  0.33369000  0.80280500  1.0
  O  O356  1  0.52109000  0.29193000  0.87248500  1.0
  O  O357  1  0.48326000  0.13038000  0.85691000  1.0
  O  O358  1  0.49163000  0.20842000  0.77744000  1.0
  O  O359  1  0.32990000  0.16629000  0.80598000  1.0
  O  O360  1  0.68049000  0.76402000  0.86125000  1.0
  O  O361  1  0.71764000  0.79312000  0.78586000  1.0
  O  O362  1  0.52486000  0.77821000  0.84247500  1.0
  O  O363  1  0.58739000  0.62430000  0.85873000  1.0
  O  O364  1  0.55092000  0.74138000  0.76504500  1.0
  O  O365  1  0.67312000  0.63746000  0.78954000  1.0
  O  O366  1  0.69410000  0.64670000  0.85921000  1.0
  O  O367  1  0.66464000  0.70294000  0.74489000  1.0
  O  O368  1  0.51825000  0.67084000  0.80576000  1.0
  O  O369  1  0.59539000  0.73317000  0.89332500  1.0
  O  O370  1  0.60305000  0.82716000  0.80938000  1.0
  O  O371  1  0.75840000  0.71427000  0.81423500  1.0
  O  O372  1  0.64099000  0.81780000  0.10316500  1.0
  O  O373  1  0.68500000  0.72118000  0.21296500  1.0
  O  O374  1  0.57107000  0.69725000  0.12965500  1.0
  O  O375  1  0.49312000  0.84725000  0.14215500  1.0
  O  O376  1  0.50787000  0.71797000  0.23015500  1.0
  O  O377  1  0.65631000  0.85034000  0.20705000  1.0
  O  O378  1  0.58855000  0.89527000  0.15527000  1.0
  O  O379  1  0.60343000  0.79117000  0.24938000  1.0
  O  O380  1  0.52815000  0.76992000  0.18538000  1.0
  O  O381  1  0.54099000  0.78145000  0.08731500  1.0
  O  O382  1  0.58817000  0.65423000  0.18734000  1.0
  O  O383  1  0.69857000  0.76358000  0.15605000  1.0
  O  O384  1  0.97246000  0.45271000  0.65514000  1.0
  O  O385  1  0.87713000  0.36894000  0.75992500  1.0
  O  O386  1  0.03579000  0.33274000  0.68845000  1.0
  O  O387  1  0.92352000  0.31855000  0.60392500  1.0
  O  O388  1  0.94057000  0.22372000  0.71559000  1.0
  O  O389  1  0.82269000  0.36121000  0.67627000  1.0
  O  O390  1  0.87239000  0.40697000  0.61843500  1.0
  O  O391  1  0.82830000  0.28287000  0.71812000  1.0
  O  O392  1  0.92538000  0.27479000  0.66857500  1.0
  O  O393  1  0.02790000  0.37760000  0.62368000  1.0
  O  O394  1  0.99233000  0.31788000  0.74878000  1.0
  O  O395  1  0.92764000  0.40499000  0.71407000  1.0
  O  O396  1  0.90450000  0.10469000  0.38684000  1.0
  O  O397  1  0.82339000  0.13061000  0.27632500  1.0
  O  O398  1  0.01728000  0.20843000  0.30956000  1.0
  O  O399  1  0.94789000  0.22595000  0.40496500  1.0
  O  O400  1  0.91653000  0.27429000  0.28863500  1.0
  O  O401  1  0.76262000  0.17925000  0.34487000  1.0
  O  O402  1  0.83901000  0.20764000  0.40054500  1.0
  O  O403  1  0.80051000  0.24265000  0.30196000  1.0
  O  O404  1  0.95199000  0.29418000  0.34884000  1.0
  O  O405  1  0.99884000  0.13758000  0.36139500  1.0
  O  O406  1  0.94471000  0.15936000  0.27001000  1.0
  O  O407  1  0.83467000  0.08153000  0.32979500  1.0
  O  O408  1  0.14525000  0.71423000  0.37547500  1.0
  O  O409  1  0.13647000  0.69799000  0.26635500  1.0
  O  O410  1  0.01912000  0.79478000  0.36787500  1.0
  O  O411  1  0.97352000  0.64187000  0.38859500  1.0
  O  O412  1  0.99131000  0.66381000  0.31692000  1.0
  O  O413  1  0.12730000  0.56984000  0.31968000  1.0
  O  O414  1  0.07841000  0.61110000  0.38321500  1.0
  O  O415  1  0.06697000  0.60379000  0.27217000  1.0
  O  O416  1  0.92561000  0.72362000  0.34759000  1.0
  O  O417  1  0.05963000  0.72152000  0.41613000  1.0
  O  O418  1  0.06200000  0.76516000  0.30851500  1.0
  O  O419  1  0.19803000  0.66719000  0.31431000  1.0
  O  O420  1  0.17749000  0.85560000  0.60598000  1.0
  O  O421  1  0.24513000  0.77615000  0.71958500  1.0
  O  O422  1  0.09899000  0.75577000  0.65943500  1.0
  O  O423  1  0.06309000  0.91785000  0.65764500  1.0
  O  O424  1  0.08380000  0.81586000  0.76023000  1.0
  O  O425  1  0.24055000  0.88651000  0.70263500  1.0
  O  O426  1  0.16864000  0.94736000  0.65761000  1.0
  O  O427  1  0.19375000  0.87229000  0.75781000  1.0
  O  O428  1  0.09795000  0.84983000  0.70716000  1.0
  O  O429  1  0.07190000  0.82738000  0.60881000  1.0
  O  O430  1  0.13135000  0.72569000  0.71864000  1.0
  O  O431  1  0.23343000  0.79052000  0.65601500  1.0
  O  O432  1  0.23570000  0.37200000  0.17142500  1.0
  O  O433  1  0.28822000  0.17490000  0.71386500  1.0
  O  O434  1  0.67501000  0.60402000  0.69439000  1.0
  O  O435  1  0.62729000  0.87737000  0.30229000  1.0
  O  O436  1  0.21491000  0.14586000  0.14614500  1.0
  O  O437  1  0.28771000  0.42590000  0.82091500  1.0
  O  O438  1  0.96906000  0.88059000  0.70391000  1.0
  O  O439  1  0.81251000  0.70183000  0.15247500  1.0
  O  O440  1  0.70537000  0.31488000  0.65779000  1.0
  O  O441  1  0.49954000  0.38191000  0.30311500  1.0
  O  O442  1  0.40621000  0.74505000  0.15772000  1.0
  O  O443  1  0.30083000  0.68734000  0.64304500  1.0
  O  O444  1  0.38378000  0.33932000  0.95277500  1.0
  O  O445  1  0.70618000  0.84790000  0.91554000  1.0
  O  O446  1  0.79472000  0.38723000  0.56080500  1.0
  O  O447  1  0.21546000  0.78052000  0.42324000  1.0
  O  O448  1  0.35339000  0.08006000  0.24440500  1.0
  O  O449  1  0.70871000  0.55132000  0.90396500  1.0
  O  O450  1  0.37169000  0.03994000  0.89726500  1.0
  O  O451  1  0.63576000  0.59146000  0.10488500  1.0
  O  O452  1  0.03491000  0.23073000  0.63862000  1.0
  O  O453  1  0.90853000  0.39075000  0.28033000  1.0
  O  O454  1  0.11298000  0.87357000  0.30840500  1.0
  O  O455  1  0.10325000  0.45845000  0.59395000  1.0
