# generated using pymatgen
data_Co3H26C30O13
_symmetry_space_group_name_H-M   'P 1'
_cell_length_a   21.10085000
_cell_length_b   22.12415000
_cell_length_c   34.42440000
_cell_angle_alpha   90.00000000
_cell_angle_beta   90.00000000
_cell_angle_gamma   96.91500000
_symmetry_Int_Tables_number   1
_chemical_formula_structural   Co3H26C30O13
_chemical_formula_sum   'Co24 H208 C240 O104'
_cell_volume   15953.73072229
_cell_formula_units_Z   8
loop_
 _symmetry_equiv_pos_site_id
 _symmetry_equiv_pos_as_xyz
  1  'x, y, z'
loop_
 _atom_site_type_symbol
 _atom_site_label
 _atom_site_symmetry_multiplicity
 _atom_site_fract_x
 _atom_site_fract_y
 _atom_site_fract_z
 _atom_site_occupancy
  C  C0  1  0.69300000  0.81916000  0.64667000  1.0
  C  C1  1  0.80434000  0.73948000  0.61646000  1.0
  C  C2  1  0.72528000  0.90318000  0.51803000  1.0
  C  C3  1  0.91438000  0.84700000  0.54193000  1.0
  C  C4  1  0.73840000  0.66852000  0.53054000  1.0
  C  C5  1  0.56666000  0.78386000  0.57610000  1.0
  C  C6  1  0.13786000  0.55988000  0.63706000  1.0
  C  C7  1  0.06915000  0.62450000  0.55606000  1.0
  C  C8  1  0.23840000  0.46688000  0.53010000  1.0
  C  C9  1  0.06864000  0.48642000  0.47102000  1.0
  C  C10  1  0.20606000  0.68790000  0.50554000  1.0
  C  C11  1  0.30322000  0.60716000  0.62189000  1.0
  C  C12  1  0.16250000  0.03018000  0.30063000  1.0
  C  C13  1  0.05974000  0.11146000  0.33583000  1.0
  C  C14  1  0.17042000  0.96454000  0.43375000  1.0
  C  C15  1  0.96686000  0.01389000  0.42744000  1.0
  C  C16  1  0.14221000  0.19438000  0.41269000  1.0
  C  C17  1  0.30506000  0.07642000  0.35518000  1.0
  C  C18  1  0.69362000  0.34106000  0.29731000  1.0
  C  C19  1  0.77596000  0.25868000  0.35414000  1.0
  C  C20  1  0.62710000  0.39312000  0.42573000  1.0
  C  C21  1  0.79296000  0.34182000  0.46728000  1.0
  C  C22  1  0.65356000  0.16182000  0.40500000  1.0
  C  C23  1  0.53280000  0.29142000  0.32283000  1.0
  C  C24  1  0.23902000  0.86016000  0.14381000  1.0
  C  C25  1  0.34588000  0.80094000  0.08547000  1.0
  C  C26  1  0.17236000  0.91277000  0.01565000  1.0
  C  C27  1  0.36356000  0.90016000  0.97649000  1.0
  C  C28  1  0.24772000  0.69848000  0.02665000  1.0
  C  C29  1  0.09026000  0.78558000  0.10999000  1.0
  C  C30  1  0.63047000  0.51582000  0.13826000  1.0
  C  C31  1  0.52242000  0.58858000  0.08998000  1.0
  C  C32  1  0.68220000  0.47920000  0.00502000  1.0
  C  C33  1  0.48884000  0.50618000  0.97625000  1.0
  C  C34  1  0.61730000  0.69672000  0.03477000  1.0
  C  C35  1  0.77900000  0.59024000  0.10325000  1.0
  C  C36  1  0.61674000  0.01936000  0.78120000  1.0
  C  C37  1  0.51920000  0.09624000  0.83053000  1.0
  C  C38  1  0.66072000  0.97394000  0.91471000  1.0
  C  C39  1  0.62531000  0.11010000  0.97386000  1.0
  C  C40  1  0.62032000  0.20474000  0.88220000  1.0
  C  C41  1  0.77028000  0.07858000  0.81710000  1.0
  C  C42  1  0.16148000  0.36302000  0.79196000  1.0
  C  C43  1  0.27808000  0.29825000  0.82786000  1.0
  C  C44  1  0.15222000  0.41204000  0.92803000  1.0
  C  C45  1  0.22482000  0.28620000  0.98054500  1.0
  C  C46  1  0.20578000  0.18782000  0.89126000  1.0
  C  C47  1  0.02470000  0.29524000  0.84599000  1.0
  C  C48  1  0.36220000  0.61935000  0.64636000  1.0
  C  C49  1  0.39442000  0.68376000  0.64282000  1.0
  C  C50  1  0.39044000  0.72556000  0.67315000  1.0
  C  C51  1  0.42278000  0.78434000  0.67053500  1.0
  C  C52  1  0.45818000  0.80228000  0.63730000  1.0
  C  C53  1  0.46042000  0.76178000  0.60602000  1.0
  C  C54  1  0.42936000  0.70218000  0.60927000  1.0
  C  C55  1  0.49649000  0.78194000  0.56961000  1.0
  C  C56  1  0.37556000  0.08095000  0.34962000  1.0
  C  C57  1  0.39506000  0.12476000  0.31714000  1.0
  C  C58  1  0.38810000  0.10610000  0.27820000  1.0
  C  C59  1  0.40780000  0.14668000  0.24821000  1.0
  C  C60  1  0.43378000  0.20626000  0.25686000  1.0
  C  C61  1  0.43840000  0.22622000  0.29557000  1.0
  C  C62  1  0.41896000  0.18520000  0.32556000  1.0
  C  C63  1  0.46756000  0.28987000  0.30538000  1.0
  C  C64  1  0.02634000  0.76851000  0.12826000  1.0
  C  C65  1  0.98006000  0.72856000  0.10292000  1.0
  C  C66  1  0.97840000  0.73486000  0.06222000  1.0
  C  C67  1  0.93312000  0.69818000  0.04024000  1.0
  C  C68  1  0.88868000  0.65547000  0.05858000  1.0
  C  C69  1  0.88850000  0.64986000  0.09933000  1.0
  C  C70  1  0.93478000  0.68612000  0.12099000  1.0
  C  C71  1  0.84452000  0.60160000  0.12033000  1.0
  C  C72  1  0.83900000  0.08221000  0.80507000  1.0
  C  C73  1  0.86818000  0.14614000  0.79568000  1.0
  C  C74  1  0.86676000  0.16834000  0.75753000  1.0
  C  C75  1  0.89602000  0.22674000  0.74857000  1.0
  C  C76  1  0.92566000  0.26388000  0.77778000  1.0
  C  C77  1  0.92528000  0.24320000  0.81636000  1.0
  C  C78  1  0.89712000  0.18394000  0.82504000  1.0
  C  C79  1  0.95341000  0.28480000  0.84818000  1.0
  C  C80  1  0.70642000  0.83146000  0.68889000  1.0
  C  C81  1  0.64840000  0.85024000  0.70914000  1.0
  C  C82  1  0.59894000  0.80590000  0.72103000  1.0
  C  C83  1  0.54704000  0.82258000  0.74195000  1.0
  C  C84  1  0.54330000  0.88378000  0.75052000  1.0
  C  C85  1  0.59086000  0.92910000  0.73745000  1.0
  C  C86  1  0.64388000  0.91194000  0.71730000  1.0
  C  C87  1  0.58458000  0.99548000  0.74451000  1.0
  C  C88  1  0.09698000  0.54728000  0.67243000  1.0
  C  C89  1  0.13774000  0.52974000  0.70575000  1.0
  C  C90  1  0.17614000  0.57480000  0.72668000  1.0
  C  C91  1  0.21502000  0.55866000  0.75690000  1.0
  C  C92  1  0.21682000  0.49739000  0.76612000  1.0
  C  C93  1  0.17931000  0.45148000  0.74529000  1.0
  C  C94  1  0.13952000  0.46814000  0.71531000  1.0
  C  C95  1  0.18544000  0.38508000  0.75277000  1.0
  C  C96  1  0.27138000  0.88272000  0.18082000  1.0
  C  C97  1  0.25432000  0.94450000  0.19272000  1.0
  C  C98  1  0.28816000  0.99770000  0.17734000  1.0
  C  C99  1  0.27506000  0.05492000  0.18997000  1.0
  C  C100  1  0.22748000  0.05964000  0.21764000  1.0
  C  C101  1  0.19170000  0.00708000  0.23251000  1.0
  C  C102  1  0.20590000  0.94952000  0.22022000  1.0
  C  C103  1  0.13798000  0.01252000  0.26081000  1.0
  C  C104  1  0.73052000  0.36422000  0.26201000  1.0
  C  C105  1  0.71142000  0.42474000  0.24908000  1.0
  C  C106  1  0.73790000  0.47882000  0.26724000  1.0
  C  C107  1  0.72150000  0.53500000  0.25485000  1.0
  C  C108  1  0.67794000  0.53776000  0.22453000  1.0
  C  C109  1  0.65006000  0.48419000  0.20630000  1.0
  C  C110  1  0.66738000  0.42774000  0.21864000  1.0
  C  C111  1  0.60102000  0.48720000  0.17453000  1.0
  C  C112  1  0.97556000  0.95854000  0.40333000  1.0
  C  C113  1  0.98659000  0.90296000  0.42682000  1.0
  C  C114  1  0.00536000  0.85230000  0.40726000  1.0
  C  C115  1  0.01580000  0.79980000  0.42766500  1.0
  C  C116  1  0.00834000  0.79750000  0.46795000  1.0
  C  C117  1  0.99060000  0.84798000  0.48812000  1.0
  C  C118  1  0.97852000  0.89992000  0.46743000  1.0
  C  C119  1  0.98334000  0.84724000  0.53158000  1.0
  C  C120  1  0.84992000  0.33830000  0.49245000  1.0
  C  C121  1  0.90748000  0.34424000  0.46622000  1.0
  C  C122  1  0.92340000  0.29414000  0.44470000  1.0
  C  C123  1  0.97516000  0.30106000  0.41904000  1.0
  C  C124  1  0.01180000  0.35771000  0.41499000  1.0
  C  C125  1  0.99562000  0.40826000  0.43571000  1.0
  C  C126  1  0.94274000  0.40134000  0.46070000  1.0
  C  C127  1  0.03616000  0.46900000  0.43323000  1.0
  C  C128  1  0.36380000  0.95416000  0.00308000  1.0
  C  C129  1  0.43154000  0.97924000  0.01312000  1.0
  C  C130  1  0.46508000  0.95074000  0.04160000  1.0
  C  C131  1  0.52792000  0.97298000  0.05068000  1.0
  C  C132  1  0.55792000  0.02418000  0.03156000  1.0
  C  C133  1  0.52572000  0.05302000  0.00231000  1.0
  C  C134  1  0.46210000  0.03042000  0.99366000  1.0
  C  C135  1  0.55558000  0.11096000  0.98288000  1.0
  C  C136  1  0.49032000  0.44784000  0.99857000  1.0
  C  C137  1  0.42356000  0.42196000  0.01017000  1.0
  C  C138  1  0.39314000  0.44806000  0.04102000  1.0
  C  C139  1  0.33092000  0.42590000  0.05146000  1.0
  C  C140  1  0.29852000  0.37678000  0.03150000  1.0
  C  C141  1  0.32792000  0.34960000  0.00024000  1.0
  C  C142  1  0.39082000  0.37254000  0.99003000  1.0
  C  C143  1  0.29668000  0.29316000  0.97958000  1.0
  C  C144  1  0.85111000  0.72490000  0.64690000  1.0
  C  C145  1  0.88838000  0.67426000  0.63368000  1.0
  C  C146  1  0.88418000  0.61904000  0.65425000  1.0
  C  C147  1  0.92020000  0.57304000  0.64280000  1.0
  C  C148  1  0.96026000  0.58127000  0.61045000  1.0
  C  C149  1  0.96534000  0.63610000  0.58941000  1.0
  C  C150  1  0.92914000  0.68232000  0.60125000  1.0
  C  C151  1  0.00332000  0.64316000  0.55214000  1.0
  C  C152  1  0.84210000  0.25512000  0.33918000  1.0
  C  C153  1  0.86604000  0.19364000  0.34415500  1.0
  C  C154  1  0.83322000  0.14526000  0.36573000  1.0
  C  C155  1  0.85562000  0.08844000  0.36663000  1.0
  C  C156  1  0.91128000  0.07940000  0.34671000  1.0
  C  C157  1  0.94650000  0.12762000  0.32681000  1.0
  C  C158  1  0.92362000  0.18456000  0.32583000  1.0
  C  C159  1  0.00821000  0.11838000  0.30675000  1.0
  C  C160  1  0.45748000  0.58576000  0.10832000  1.0
  C  C161  1  0.44710000  0.64440000  0.12829000  1.0
  C  C162  1  0.44786000  0.64850000  0.16898000  1.0
  C  C163  1  0.43558000  0.70220000  0.18734000  1.0
  C  C164  1  0.42350000  0.75254000  0.16523500  1.0
  C  C165  1  0.42500000  0.74998000  0.12452000  1.0
  C  C166  1  0.43594000  0.69546000  0.10618000  1.0
  C  C167  1  0.41308000  0.80450000  0.10057000  1.0
  C  C168  1  0.34128000  0.29356000  0.80878000  1.0
  C  C169  1  0.37756000  0.25072000  0.83209000  1.0
  C  C170  1  0.38948000  0.26096000  0.87198500  1.0
  C  C171  1  0.41644000  0.21814000  0.89437000  1.0
  C  C172  1  0.43448000  0.16590000  0.87697000  1.0
  C  C173  1  0.42854000  0.15722000  0.83650000  1.0
  C  C174  1  0.39830000  0.19912000  0.81451000  1.0
  C  C175  1  0.45276000  0.10292000  0.81696000  1.0
  C  C176  1  0.75366000  0.93330000  0.48200000  1.0
  C  C177  1  0.74222000  0.99964000  0.48113000  1.0
  C  C178  1  0.77042000  0.04040000  0.50923000  1.0
  C  C179  1  0.75710000  0.10072000  0.50992000  1.0
  C  C180  1  0.71546000  0.12110000  0.48265000  1.0
  C  C181  1  0.68890000  0.08216000  0.45296000  1.0
  C  C182  1  0.70218000  0.02114000  0.45285000  1.0
  C  C183  1  0.63872000  0.10114000  0.42522000  1.0
  C  C184  1  0.24932000  0.44164000  0.49058000  1.0
  C  C185  1  0.23434000  0.37314000  0.48935000  1.0
  C  C186  1  0.26502000  0.33604000  0.51461000  1.0
  C  C187  1  0.25344000  0.27262000  0.51181000  1.0
  C  C188  1  0.21150000  0.24550000  0.48366000  1.0
  C  C189  1  0.18124000  0.28185000  0.45763000  1.0
  C  C190  1  0.19216000  0.34554000  0.46122000  1.0
  C  C191  1  0.13136000  0.25500000  0.42909000  1.0
  C  C192  1  0.22680000  0.73376000  0.47452000  1.0
  C  C193  1  0.23336000  0.79856000  0.48911000  1.0
  C  C194  1  0.28508000  0.82072000  0.51293000  1.0
  C  C195  1  0.29422000  0.88194000  0.52382000  1.0
  C  C196  1  0.25188000  0.92166000  0.51111000  1.0
  C  C197  1  0.19894000  0.90008000  0.48817000  1.0
  C  C198  1  0.19020000  0.83848000  0.47699000  1.0
  C  C199  1  0.15372000  0.94310000  0.47405000  1.0
  C  C200  1  0.74950000  0.61176000  0.50903500  1.0
  C  C201  1  0.69086000  0.57868000  0.48982000  1.0
  C  C202  1  0.64506000  0.61024000  0.47147000  1.0
  C  C203  1  0.59280000  0.57832000  0.45259500  1.0
  C  C204  1  0.58614000  0.51474000  0.45129000  1.0
  C  C205  1  0.63188000  0.48236000  0.46889000  1.0
  C  C206  1  0.68408000  0.51476000  0.48803000  1.0
  C  C207  1  0.62506000  0.41367000  0.46708000  1.0
  C  C208  1  0.17156000  0.93248000  0.97419000  1.0
  C  C209  1  0.16454000  0.99944000  0.97044000  1.0
  C  C210  1  0.12462000  0.02856000  0.99527000  1.0
  C  C211  1  0.11766000  0.09003000  0.99003000  1.0
  C  C212  1  0.14926000  0.12284000  0.95962500  1.0
  C  C213  1  0.18824000  0.09412000  0.93389500  1.0
  C  C214  1  0.19596000  0.03276000  0.94000000  1.0
  C  C215  1  0.22422000  0.12621000  0.90034000  1.0
  C  C216  1  0.60980000  0.26910000  0.89074000  1.0
  C  C217  1  0.65196000  0.30034000  0.92210000  1.0
  C  C218  1  0.69804000  0.27198000  0.94274000  1.0
  C  C219  1  0.73672000  0.30466000  0.97036000  1.0
  C  C220  1  0.73030000  0.36578000  0.97759000  1.0
  C  C221  1  0.68380000  0.39464000  0.95783000  1.0
  C  C222  1  0.64516000  0.36142000  0.93018000  1.0
  C  C223  1  0.67866000  0.46178000  0.96312000  1.0
  C  C224  1  0.59944000  0.75810000  0.02435000  1.0
  C  C225  1  0.64488000  0.79582000  0.99741000  1.0
  C  C226  1  0.70138000  0.77640000  0.98262000  1.0
  C  C227  1  0.74194000  0.81504000  0.95892000  1.0
  C  C228  1  0.72692000  0.87322000  0.94987000  1.0
  C  C229  1  0.67027000  0.89310000  0.96388000  1.0
  C  C230  1  0.62980000  0.85398000  0.98758000  1.0
  C  C231  1  0.65522000  0.95726000  0.95680000  1.0
  C  C232  1  0.16814000  0.43100000  0.96892000  1.0
  C  C233  1  0.15947000  0.49702000  0.97485000  1.0
  C  C234  1  0.10050000  0.51834000  0.96733000  1.0
  C  C235  1  0.09330000  0.57972000  0.97273000  1.0
  C  C236  1  0.14460000  0.62030000  0.98598000  1.0
  C  C237  1  0.20346000  0.59932000  0.99477000  1.0
  C  C238  1  0.21048000  0.53786000  0.98853000  1.0
  C  C239  1  0.26168000  0.64110000  0.00730000  1.0
  Co  Co240  1  0.78854000  0.79472000  0.54460000  1.0
  Co  Co241  1  0.67346000  0.72174000  0.59096000  1.0
  Co  Co242  1  0.68336000  0.86516000  0.57119000  1.0
  Co  Co243  1  0.15648000  0.56048000  0.51628000  1.0
  Co  Co244  1  0.19818000  0.65324000  0.58534000  1.0
  Co  Co245  1  0.22060000  0.51078000  0.58469000  1.0
  Co  Co246  1  0.09270000  0.06591000  0.40823000  1.0
  Co  Co247  1  0.19406000  0.13476000  0.35006000  1.0
  Co  Co248  1  0.19414000  0.99474000  0.37547000  1.0
  Co  Co249  1  0.70092000  0.28900000  0.41617000  1.0
  Co  Co250  1  0.64148000  0.23222000  0.33727000  1.0
  Co  Co251  1  0.62936000  0.36892000  0.36519000  1.0
  Co  Co252  1  0.26848000  0.83038000  0.02327000  1.0
  Co  Co253  1  0.21336000  0.75196000  0.09707500  1.0
  Co  Co254  1  0.17410000  0.88390000  0.07531000  1.0
  Co  Co255  1  0.59100000  0.56596000  0.02253000  1.0
  Co  Co256  1  0.65734000  0.63040000  0.09827000  1.0
  Co  Co257  1  0.68774000  0.50050000  0.06592000  1.0
  Co  Co258  1  0.58572000  0.07730000  0.89841000  1.0
  Co  Co259  1  0.65518000  0.13112000  0.82141000  1.0
  Co  Co260  1  0.66904000  0.99754000  0.85409000  1.0
  Co  Co261  1  0.23308000  0.31727000  0.90206000  1.0
  Co  Co262  1  0.14420000  0.25268000  0.83568000  1.0
  Co  Co263  1  0.12866000  0.38522000  0.86918000  1.0
  H  H264  1  0.92574000  0.92314000  0.57609500  1.0
  H  H265  1  0.68320000  0.77802000  0.53448000  1.0
  H  H266  1  0.07256000  0.46492000  0.52885000  1.0
  H  H267  1  0.24786000  0.59262000  0.54533000  1.0
  H  H268  1  0.87396000  0.98572000  0.44078000  1.0
  H  H269  1  0.19940000  0.08582000  0.40860000  1.0
  H  H270  1  0.80771000  0.43400000  0.45882000  1.0
  H  H271  1  0.60242000  0.27394000  0.39201500  1.0
  H  H272  1  0.42686000  0.94244000  0.93689000  1.0
  H  H273  1  0.17174000  0.79270000  0.04360000  1.0
  H  H274  1  0.41962000  0.47170000  0.93763000  1.0
  H  H275  1  0.69126000  0.59648000  0.04032000  1.0
  H  H276  1  0.65796000  0.14014000  0.02725000  1.0
  H  H277  1  0.68946000  0.09448000  0.87841000  1.0
  H  H278  1  0.21620000  0.25422000  0.03626000  1.0
  H  H279  1  0.12570000  0.28972000  0.89601000  1.0
  H  H280  1  0.43194000  0.67022000  0.58565000  1.0
  H  H281  1  0.48233000  0.75008000  0.54526000  1.0
  H  H282  1  0.48488000  0.82788000  0.56111000  1.0
  H  H283  1  0.39570000  0.58690000  0.63710000  1.0
  H  H284  1  0.34860000  0.60793000  0.67693000  1.0
  H  H285  1  0.36280000  0.71250000  0.69893000  1.0
  H  H286  1  0.42042000  0.81606000  0.69431000  1.0
  H  H287  1  0.48344000  0.84778000  0.63581500  1.0
  H  H288  1  0.42356000  0.20017000  0.35550000  1.0
  H  H289  1  0.47092000  0.31992000  0.27938000  1.0
  H  H290  1  0.43658000  0.31072000  0.32643000  1.0
  H  H291  1  0.38942000  0.03518000  0.34275000  1.0
  H  H292  1  0.39858000  0.09721000  0.37741000  1.0
  H  H293  1  0.36760000  0.06018000  0.27111000  1.0
  H  H294  1  0.40339000  0.13188000  0.21825000  1.0
  H  H295  1  0.45026000  0.23682000  0.23342000  1.0
  H  H296  1  0.93562000  0.68124000  0.15230000  1.0
  H  H297  1  0.86702000  0.55870000  0.12092000  1.0
  H  H298  1  0.83818000  0.61578000  0.15098000  1.0
  H  H299  1  0.00442000  0.81032000  0.13564000  1.0
  H  H300  1  0.03420000  0.74486000  0.15606000  1.0
  H  H301  1  0.01194000  0.76790000  0.04737000  1.0
  H  H302  1  0.93256000  0.70274000  0.00888000  1.0
  H  H303  1  0.85466000  0.62702000  0.04094000  1.0
  H  H304  1  0.89716000  0.16738000  0.85464000  1.0
  H  H305  1  0.93320000  0.32894000  0.84651000  1.0
  H  H306  1  0.94054000  0.26482000  0.87719500  1.0
  H  H307  1  0.84182000  0.05171000  0.77961000  1.0
  H  H308  1  0.86544000  0.06303000  0.82922000  1.0
  H  H309  1  0.84332000  0.14032000  0.73473000  1.0
  H  H310  1  0.89552000  0.24330000  0.71896000  1.0
  H  H311  1  0.94820000  0.30900000  0.77045000  1.0
  H  H312  1  0.68136000  0.94662000  0.70784000  1.0
  H  H313  1  0.60416000  0.02346000  0.71943000  1.0
  H  H314  1  0.53332000  0.00202000  0.74669000  1.0
  H  H315  1  0.74762000  0.86768000  0.69165500  1.0
  H  H316  1  0.71922000  0.78892000  0.70236000  1.0
  H  H317  1  0.60094000  0.75834000  0.71444000  1.0
  H  H318  1  0.50954000  0.78798000  0.75149000  1.0
  H  H319  1  0.50288000  0.89590000  0.76687000  1.0
  H  H320  1  0.11116000  0.43310000  0.69874000  1.0
  H  H321  1  0.16052000  0.35539000  0.73001000  1.0
  H  H322  1  0.23672000  0.37856000  0.75088000  1.0
  H  H323  1  0.05850000  0.50976000  0.66580000  1.0
  H  H324  1  0.07536000  0.58906000  0.68019000  1.0
  H  H325  1  0.17650000  0.62238000  0.71931000  1.0
  H  H326  1  0.24458000  0.59368000  0.77286000  1.0
  H  H327  1  0.24826000  0.48576000  0.78906000  1.0
  H  H328  1  0.17918000  0.90868000  0.23191000  1.0
  H  H329  1  0.10942000  0.04814000  0.25013000  1.0
  H  H330  1  0.10542000  0.96908000  0.26244000  1.0
  H  H331  1  0.32364000  0.88570000  0.17567000  1.0
  H  H332  1  0.25898000  0.84858000  0.20419000  1.0
  H  H333  1  0.32496000  0.99482000  0.15575000  1.0
  H  H334  1  0.30182000  0.09572000  0.17826000  1.0
  H  H335  1  0.21806000  0.10432000  0.22716000  1.0
  H  H336  1  0.64632000  0.38617000  0.20478000  1.0
  H  H337  1  0.57650000  0.44106000  0.16765000  1.0
  H  H338  1  0.56425000  0.51526000  0.18507000  1.0
  H  H339  1  0.72290000  0.32985000  0.23833000  1.0
  H  H340  1  0.78190000  0.37010000  0.27000000  1.0
  H  H341  1  0.77122000  0.47742000  0.29103000  1.0
  H  H342  1  0.74244000  0.57650000  0.26888000  1.0
  H  H343  1  0.66565000  0.58171000  0.21549000  1.0
  H  H344  1  0.96418000  0.93785000  0.48363000  1.0
  H  H345  1  0.00040000  0.80570000  0.54399000  1.0
  H  H346  1  0.01284000  0.88732000  0.54444000  1.0
  H  H347  1  0.93184000  0.94613000  0.38576000  1.0
  H  H348  1  0.01512000  0.96804000  0.38242000  1.0
  H  H349  1  0.01202000  0.85348000  0.37607000  1.0
  H  H350  1  0.03016000  0.76104000  0.41227000  1.0
  H  H351  1  0.01686000  0.75664000  0.48334000  1.0
  H  H352  1  0.92988000  0.44042000  0.47651000  1.0
  H  H353  1  0.07294000  0.46948000  0.41008000  1.0
  H  H354  1  0.00590000  0.50480000  0.42503000  1.0
  H  H355  1  0.84538000  0.29360000  0.50764000  1.0
  H  H356  1  0.85310000  0.37584000  0.51419000  1.0
  H  H357  1  0.89520000  0.25012000  0.44731000  1.0
  H  H358  1  0.98718000  0.26240000  0.40245000  1.0
  H  H359  1  0.05280000  0.36214000  0.39588000  1.0
  H  H360  1  0.43616000  0.05250000  0.97170000  1.0
  H  H361  1  0.52960000  0.11800000  0.95557000  1.0
  H  H362  1  0.54982000  0.14966000  0.00254000  1.0
  H  H363  1  0.33754000  0.94130000  0.03008000  1.0
  H  H364  1  0.33896000  0.98896000  0.98798000  1.0
  H  H365  1  0.44254000  0.91144000  0.05681500  1.0
  H  H366  1  0.55332000  0.95082000  0.07284000  1.0
  H  H367  1  0.60618000  0.04080000  0.03983000  1.0
  H  H368  1  0.41444000  0.35200000  0.96635000  1.0
  H  H369  1  0.31282000  0.29466000  0.94890000  1.0
  H  H370  1  0.31358000  0.25282000  0.99354500  1.0
  H  H371  1  0.51940000  0.45598000  0.02505000  1.0
  H  H372  1  0.51280000  0.41544000  0.97989000  1.0
  H  H373  1  0.41770000  0.48554000  0.05694000  1.0
  H  H374  1  0.30786000  0.44652000  0.07533000  1.0
  H  H375  1  0.25072000  0.36072000  0.04086000  1.0
  H  H376  1  0.93200000  0.72440000  0.58496000  1.0
  H  H377  1  0.97626000  0.61552000  0.52925000  1.0
  H  H378  1  0.00872000  0.69150000  0.54256000  1.0
  H  H379  1  0.82452000  0.71192000  0.67410000  1.0
  H  H380  1  0.88536000  0.76624000  0.65251000  1.0
  H  H381  1  0.85310000  0.61152000  0.67921000  1.0
  H  H382  1  0.91670000  0.53068000  0.65889000  1.0
  H  H383  1  0.98682000  0.54464000  0.60166000  1.0
  H  H384  1  0.95014000  0.22188000  0.31020000  1.0
  H  H385  1  0.00006000  0.07622000  0.28899000  1.0
  H  H386  1  0.02378000  0.15676000  0.28668000  1.0
  H  H387  1  0.87656000  0.29058000  0.35312000  1.0
  H  H388  1  0.84257000  0.26615000  0.30762000  1.0
  H  H389  1  0.79000000  0.15034000  0.38150500  1.0
  H  H390  1  0.82936000  0.05114000  0.38248500  1.0
  H  H391  1  0.92724000  0.03486000  0.34690000  1.0
  H  H392  1  0.43572000  0.69278000  0.07474000  1.0
  H  H393  1  0.42344000  0.84718000  0.11769000  1.0
  H  H394  1  0.44676000  0.80946000  0.07560000  1.0
  H  H395  1  0.45188000  0.54674000  0.12890000  1.0
  H  H396  1  0.42078000  0.57626000  0.08530000  1.0
  H  H397  1  0.45761000  0.61002000  0.18646000  1.0
  H  H398  1  0.43529000  0.70478000  0.21874000  1.0
  H  H399  1  0.41322000  0.79359000  0.17984000  1.0
  H  H400  1  0.39076000  0.19142000  0.78371000  1.0
  H  H401  1  0.41978000  0.06134000  0.82395000  1.0
  H  H402  1  0.45400000  0.10914000  0.78485000  1.0
  H  H403  1  0.36972000  0.33924000  0.80829000  1.0
  H  H404  1  0.33320000  0.27701000  0.77843000  1.0
  H  H405  1  0.37614000  0.30114000  0.88617000  1.0
  H  H406  1  0.42312000  0.22536000  0.92533000  1.0
  H  H407  1  0.45424000  0.13296000  0.89512000  1.0
  H  H408  1  0.67970000  0.98978000  0.43140500  1.0
  H  H409  1  0.62728000  0.06604000  0.40228000  1.0
  H  H410  1  0.59376000  0.10228000  0.44183000  1.0
  H  H411  1  0.73236000  0.90846000  0.45610000  1.0
  H  H412  1  0.80582000  0.93064000  0.48271000  1.0
  H  H413  1  0.80154000  0.02509000  0.53120000  1.0
  H  H414  1  0.77782000  0.13145000  0.53229000  1.0
  H  H415  1  0.70322000  0.16690000  0.48554000  1.0
  H  H416  1  0.16772000  0.37368000  0.44189000  1.0
  H  H417  1  0.08426000  0.25122000  0.44390000  1.0
  H  H418  1  0.12971000  0.28626000  0.40390000  1.0
  H  H419  1  0.21912000  0.46338000  0.46944000  1.0
  H  H420  1  0.30018000  0.45402000  0.48243000  1.0
  H  H421  1  0.29798000  0.35626000  0.53639000  1.0
  H  H422  1  0.27702000  0.24438000  0.53156000  1.0
  H  H423  1  0.20260000  0.19632000  0.48244000  1.0
  H  H424  1  0.15056000  0.82198000  0.45833500  1.0
  H  H425  1  0.10434000  0.92014000  0.47456000  1.0
  H  H426  1  0.15548000  0.98334000  0.49352000  1.0
  H  H427  1  0.19322000  0.72710000  0.44947000  1.0
  H  H428  1  0.27419000  0.72352000  0.46411000  1.0
  H  H429  1  0.31884000  0.79076000  0.52258000  1.0
  H  H430  1  0.33468000  0.89882000  0.54174500  1.0
  H  H431  1  0.26036000  0.96924000  0.51908000  1.0
  H  H432  1  0.71990000  0.49028000  0.50133000  1.0
  H  H433  1  0.66422000  0.39558000  0.48338000  1.0
  H  H434  1  0.57888000  0.39520000  0.48053000  1.0
  H  H435  1  0.77048000  0.58142000  0.53000000  1.0
  H  H436  1  0.78652000  0.62344000  0.48639500  1.0
  H  H437  1  0.64970000  0.65950000  0.47162000  1.0
  H  H438  1  0.55755000  0.60290000  0.43873000  1.0
  H  H439  1  0.54564000  0.49072000  0.43626000  1.0
  H  H440  1  0.22617000  0.01056000  0.92047000  1.0
  H  H441  1  0.27626000  0.12990000  0.90676500  1.0
  H  H442  1  0.21494000  0.09758000  0.87389000  1.0
  H  H443  1  0.13070000  0.90610000  0.95903000  1.0
  H  H444  1  0.21650000  0.92220000  0.96002000  1.0
  H  H445  1  0.09866000  0.00394000  0.01862000  1.0
  H  H446  1  0.08720000  0.11220000  0.00943000  1.0
  H  H447  1  0.14248000  0.17020000  0.95631000  1.0
  H  H448  1  0.61016000  0.38354000  0.91422000  1.0
  H  H449  1  0.71796000  0.48842000  0.94680000  1.0
  H  H450  1  0.63215000  0.47306000  0.95163000  1.0
  H  H451  1  0.55906000  0.27086000  0.89911000  1.0
  H  H452  1  0.61782000  0.29630000  0.86362000  1.0
  H  H453  1  0.70500000  0.22508000  0.93746000  1.0
  H  H454  1  0.77252000  0.28280000  0.98581000  1.0
  H  H455  1  0.76194000  0.39050000  0.99843000  1.0
  H  H456  1  0.58670000  0.86924000  0.99918000  1.0
  H  H457  1  0.60574000  0.96222000  0.96633000  1.0
  H  H458  1  0.68920000  0.98884000  0.97410000  1.0
  H  H459  1  0.59580000  0.78436000  0.05164000  1.0
  H  H460  1  0.55094000  0.75306000  0.01106000  1.0
  H  H461  1  0.71486000  0.73198000  0.98945000  1.0
  H  H462  1  0.78572000  0.80020000  0.94801000  1.0
  H  H463  1  0.75982000  0.90280000  0.93224000  1.0
  H  H464  1  0.25618000  0.52192000  0.99423000  1.0
  H  H465  1  0.28934000  0.61694000  0.02860000  1.0
  H  H466  1  0.29288000  0.65204000  0.98157000  1.0
  H  H467  1  0.21818000  0.42298000  0.97503000  1.0
  H  H468  1  0.13546000  0.40296000  0.98903000  1.0
  H  H469  1  0.06032000  0.48756000  0.95696000  1.0
  H  H470  1  0.04794000  0.59594000  0.96645000  1.0
  H  H471  1  0.13794000  0.66776000  0.98928000  1.0
  O  O472  1  0.75094000  0.70344000  0.61195000  1.0
  O  O473  1  0.81870000  0.78718000  0.59459000  1.0
  O  O474  1  0.75868000  0.89928000  0.55075000  1.0
  O  O475  1  0.66430000  0.87894000  0.52038000  1.0
  O  O476  1  0.87270000  0.80334000  0.52829000  1.0
  O  O477  1  0.89510000  0.88882000  0.56483500  1.0
  O  O478  1  0.68406000  0.67062000  0.54921000  1.0
  O  O479  1  0.78708000  0.71182000  0.53301000  1.0
  O  O480  1  0.59942000  0.83632000  0.58566000  1.0
  O  O481  1  0.59274000  0.73298000  0.57297000  1.0
  O  O482  1  0.70482000  0.78776000  0.55966000  1.0
  O  O483  1  0.66162000  0.76680000  0.63613000  1.0
  O  O484  1  0.71332000  0.86116000  0.62143000  1.0
  O  O485  1  0.11476000  0.66334000  0.57045000  1.0
  O  O486  1  0.08058000  0.57378000  0.53983000  1.0
  O  O487  1  0.18046000  0.46600000  0.54571000  1.0
  O  O488  1  0.28478000  0.49816000  0.55085000  1.0
  O  O489  1  0.10988000  0.53590000  0.47225000  1.0
  O  O490  1  0.05438000  0.45354000  0.50246000  1.0
  O  O491  1  0.22868000  0.69628000  0.54123000  1.0
  O  O492  1  0.16888000  0.63858000  0.49441000  1.0
  O  O493  1  0.27364000  0.55124000  0.62239000  1.0
  O  O494  1  0.28142000  0.65210000  0.60291000  1.0
  O  O495  1  0.20646000  0.58168000  0.55861000  1.0
  O  O496  1  0.16576000  0.61566000  0.63131000  1.0
  O  O497  1  0.14904000  0.51366000  0.61537000  1.0
  O  O498  1  0.11196000  0.14972000  0.33542000  1.0
  O  O499  1  0.05134000  0.06724000  0.36093000  1.0
  O  O500  1  0.12755000  0.96214000  0.40507000  1.0
  O  O501  1  0.22890000  0.98940000  0.42375500  1.0
  O  O502  1  0.01314000  0.05874000  0.43236000  1.0
  O  O503  1  0.91146000  0.01840000  0.44404000  1.0
  O  O504  1  0.19258000  0.19056000  0.39047000  1.0
  O  O505  1  0.09476000  0.14998000  0.41603000  1.0
  O  O506  1  0.27130000  0.02282000  0.35098000  1.0
  O  O507  1  0.27876000  0.12664000  0.36089000  1.0
  O  O508  1  0.17231000  0.07244000  0.38595000  1.0
  O  O509  1  0.19489000  0.08420000  0.30609000  1.0
  O  O510  1  0.14992000  0.99140000  0.32908000  1.0
  O  O511  1  0.72814000  0.22126000  0.34027000  1.0
  O  O512  1  0.76844000  0.29732000  0.38188000  1.0
  O  O513  1  0.68102000  0.39645000  0.40511000  1.0
  O  O514  1  0.57470000  0.37146000  0.40610000  1.0
  O  O515  1  0.75990000  0.29086000  0.45605000  1.0
  O  O516  1  0.78122000  0.39399000  0.45218000  1.0
  O  O517  1  0.62020000  0.17124000  0.37378000  1.0
  O  O518  1  0.69706000  0.20374000  0.41917000  1.0
  O  O519  1  0.56550000  0.34544000  0.32838000  1.0
  O  O520  1  0.55580000  0.23978000  0.33051000  1.0
  O  O521  1  0.64146000  0.28902000  0.37726000  1.0
  O  O522  1  0.66216000  0.28642000  0.29623000  1.0
  O  O523  1  0.69316000  0.37582000  0.32794000  1.0
  O  O524  1  0.30266000  0.75700000  0.09726000  1.0
  O  O525  1  0.33382000  0.84072000  0.05924000  1.0
  O  O526  1  0.22324000  0.92526000  0.03856000  1.0
  O  O527  1  0.12260000  0.88004000  0.03251000  1.0
  O  O528  1  0.32792000  0.84820000  0.98341000  1.0
  O  O529  1  0.39900000  0.90392000  0.94484000  1.0
  O  O530  1  0.20958000  0.69516000  0.05708000  1.0
  O  O531  1  0.28064000  0.74933000  0.01472000  1.0
  O  O532  1  0.11232000  0.84396000  0.10856000  1.0
  O  O533  1  0.12476000  0.74190000  0.10059000  1.0
  O  O534  1  0.20618000  0.81264000  0.06042000  1.0
  O  O535  1  0.21863000  0.80198000  0.14112000  1.0
  O  O536  1  0.23302000  0.89798000  0.11520000  1.0
  O  O537  1  0.56870000  0.62906000  0.10233000  1.0
  O  O538  1  0.52982000  0.55192000  0.06098000  1.0
  O  O539  1  0.63338000  0.46604000  0.02935000  1.0
  O  O540  1  0.73468000  0.50850000  0.02121000  1.0
  O  O541  1  0.52658000  0.55626000  0.98497000  1.0
  O  O542  1  0.44944000  0.50834000  0.94668000  1.0
  O  O543  1  0.66014000  0.69318000  0.06223000  1.0
  O  O544  1  0.58126000  0.64892000  0.02079000  1.0
  O  O545  1  0.75422000  0.53304000  0.09867000  1.0
  O  O546  1  0.74600000  0.63660000  0.09848000  1.0
  O  O547  1  0.65782000  0.57532000  0.05736000  1.0
  O  O548  1  0.65332000  0.57358000  0.13878000  1.0
  O  O549  1  0.63274000  0.48226000  0.10720000  1.0
  O  O550  1  0.56676000  0.13570000  0.81828000  1.0
  O  O551  1  0.52568000  0.05944000  0.85968000  1.0
  O  O552  1  0.61070000  0.96876000  0.89062000  1.0
  O  O553  1  0.71562000  0.99826000  0.89872000  1.0
  O  O554  1  0.64358000  0.09500000  0.93905000  1.0
  O  O555  1  0.66924000  0.12654000  0.00024000  1.0
  O  O556  1  0.66458000  0.19486000  0.85691000  1.0
  O  O557  1  0.57828000  0.16080000  0.89532000  1.0
  O  O558  1  0.73922000  0.02336000  0.82182000  1.0
  O  O559  1  0.74296000  0.12904000  0.82086000  1.0
  O  O560  1  0.65194000  0.07704000  0.86315000  1.0
  O  O561  1  0.64638000  0.07466000  0.78093000  1.0
  O  O562  1  0.61274000  0.98628000  0.81264000  1.0
  O  O563  1  0.23088000  0.25466000  0.82186000  1.0
  O  O564  1  0.27656000  0.33726000  0.85633000  1.0
  O  O565  1  0.19442000  0.42008000  0.89896000  1.0
  O  O566  1  0.09522000  0.38344000  0.91802000  1.0
  O  O567  1  0.19240000  0.29752000  0.94933000  1.0
  O  O568  1  0.19342000  0.26558000  0.01184000  1.0
  O  O569  1  0.15282000  0.19168000  0.87172000  1.0
  O  O570  1  0.24770000  0.23554000  0.89831000  1.0
  O  O571  1  0.05216000  0.35227000  0.84506000  1.0
  O  O572  1  0.05726000  0.24780000  0.84617000  1.0
  O  O573  1  0.15574000  0.30888000  0.87628000  1.0
  O  O574  1  0.13474000  0.30684000  0.79503000  1.0
  O  O575  1  0.17182000  0.39772000  0.82247000  1.0
