# generated using pymatgen
data_Zn5H8C32(Cl4O9)2
_symmetry_space_group_name_H-M   'P 1'
_cell_length_a   13.76240000
_cell_length_b   23.59199183
_cell_length_c   46.54120000
_cell_angle_alpha   90.00000000
_cell_angle_beta   90.00000000
_cell_angle_gamma   106.40915994
_symmetry_Int_Tables_number   1
_chemical_formula_structural   Zn5H8C32(Cl4O9)2
_chemical_formula_sum   'Zn40 H64 C256 Cl64 O144'
_cell_volume   14495.61656028
_cell_formula_units_Z   8
loop_
 _symmetry_equiv_pos_site_id
 _symmetry_equiv_pos_as_xyz
  1  'x, y, z'
loop_
 _atom_site_type_symbol
 _atom_site_label
 _atom_site_symmetry_multiplicity
 _atom_site_fract_x
 _atom_site_fract_y
 _atom_site_fract_z
 _atom_site_occupancy
  C  C0  1  0.74390000  0.15518000  0.62300000  1.0
  C  C1  1  0.55290000  0.25478000  0.67735000  1.0
  C  C2  1  0.55674000  0.27098000  0.59703000  1.0
  C  C3  1  0.16489000  0.43418000  0.64943500  1.0
  C  C4  1  0.18599000  0.28706000  0.68246000  1.0
  C  C5  1  0.87950000  0.34332000  0.72520000  1.0
  C  C6  1  0.00924000  0.25968000  0.59843000  1.0
  C  C7  1  0.82570000  0.44360000  0.65199000  1.0
  C  C8  1  0.87816000  0.95356000  0.58966000  1.0
  C  C9  1  0.12990000  0.88522000  0.59904000  1.0
  C  C10  1  0.99490000  0.81776000  0.53124000  1.0
  C  C11  1  0.43995333  0.66665333  0.62302500  1.0
  C  C12  1  0.48318000  0.83374000  0.60863000  1.0
  C  C13  1  0.75706000  0.81832000  0.67535000  1.0
  C  C14  1  0.59918000  0.73450000  0.53755000  1.0
  C  C15  1  0.88371000  0.68532000  0.62289000  1.0
  C  C16  1  0.24480000  0.81202000  0.39568000  1.0
  C  C17  1  0.43842000  0.71010000  0.34337000  1.0
  C  C18  1  0.43436000  0.69820000  0.42384000  1.0
  C  C19  1  0.83270000  0.53638000  0.37036000  1.0
  C  C20  1  0.80844000  0.68186000  0.33614000  1.0
  C  C21  1  0.11812000  0.62482000  0.29513000  1.0
  C  C22  1  0.98514000  0.71436000  0.41969000  1.0
  C  C23  1  0.15962000  0.52492000  0.37090000  1.0
  C  C24  1  0.11432000  0.01306000  0.43197000  1.0
  C  C25  1  0.86330000  0.07894000  0.42108000  1.0
  C  C26  1  0.00070000  0.15490000  0.48650000  1.0
  C  C27  1  0.55384000  0.30800000  0.40098000  1.0
  C  C28  1  0.51784000  0.13964000  0.41404000  1.0
  C  C29  1  0.25188000  0.15776000  0.34374000  1.0
  C  C30  1  0.38564000  0.22896000  0.48455000  1.0
  C  C31  1  0.11122000  0.28290000  0.39575000  1.0
  C  C32  1  0.10452000  0.49744000  0.08982000  1.0
  C  C33  1  0.86074000  0.56708000  0.10255000  1.0
  C  C34  1  0.98780000  0.63704000  0.03476000  1.0
  C  C35  1  0.55842000  0.79402000  0.11889000  1.0
  C  C36  1  0.51266000  0.62450000  0.10889500  1.0
  C  C37  1  0.24862000  0.65086000  0.17680000  1.0
  C  C38  1  0.39170000  0.71408000  0.03538000  1.0
  C  C39  1  0.11078000  0.77178000  0.12328000  1.0
  C  C40  1  0.25286000  0.30142000  0.12261000  1.0
  C  C41  1  0.44940000  0.20336000  0.17574000  1.0
  C  C42  1  0.44260000  0.18792000  0.09617000  1.0
  C  C43  1  0.84236000  0.02098000  0.14946000  1.0
  C  C44  1  0.81092000  0.16434000  0.18369000  1.0
  C  C45  1  0.12660000  0.11616000  0.22522000  1.0
  C  C46  1  0.98774000  0.19932000  0.09991000  1.0
  C  C47  1  0.17406000  0.01470000  0.15123000  1.0
  C  C48  1  0.87726000  0.43462000  0.92864000  1.0
  C  C49  1  0.12642000  0.36422000  0.92162000  1.0
  C  C50  1  0.98542000  0.29684000  0.98748000  1.0
  C  C51  1  0.44668000  0.13886000  0.89924000  1.0
  C  C52  1  0.46982000  0.30672000  0.90968000  1.0
  C  C53  1  0.74580000  0.28778000  0.84205000  1.0
  C  C54  1  0.60376000  0.22080000  0.98253000  1.0
  C  C55  1  0.86432000  0.16048000  0.90010000  1.0
  C  C56  1  0.74024000  0.63402000  0.89466000  1.0
  C  C57  1  0.52818000  0.71862000  0.84093000  1.0
  C  C58  1  0.54814000  0.74722000  0.92048000  1.0
  C  C59  1  0.17170000  0.90686000  0.87113000  1.0
  C  C60  1  0.16542000  0.75430000  0.83969000  1.0
  C  C61  1  0.88786000  0.82992000  0.79312000  1.0
  C  C62  1  0.98912000  0.73726000  0.92249000  1.0
  C  C63  1  0.80074000  0.91812000  0.86751000  1.0
  C  C64  1  0.98658000  0.17314000  0.51651000  1.0
  C  C65  1  0.02012000  0.14848000  0.54102000  1.0
  C  C66  1  0.02092000  0.17536000  0.56792000  1.0
  C  C67  1  0.98808000  0.22638000  0.57113000  1.0
  C  C68  1  0.94442000  0.24698000  0.54738000  1.0
  C  C69  1  0.94430000  0.22058000  0.52051000  1.0
  C  C70  1  0.49930000  0.70712000  0.45011000  1.0
  C  C71  1  0.55618000  0.76386000  0.45969000  1.0
  C  C72  1  0.59710000  0.77100000  0.48749000  1.0
  C  C73  1  0.58420000  0.72262000  0.50621000  1.0
  C  C74  1  0.53942000  0.66516000  0.49524000  1.0
  C  C75  1  0.49730000  0.65804000  0.46756000  1.0
  C  C76  1  0.00994000  0.80276000  0.50087000  1.0
  C  C77  1  0.96136000  0.82166000  0.47746000  1.0
  C  C78  1  0.96075000  0.79517000  0.45048000  1.0
  C  C79  1  0.00688000  0.74958000  0.44634000  1.0
  C  C80  1  0.06432000  0.73534000  0.46881000  1.0
  C  C81  1  0.06582000  0.76206000  0.49564000  1.0
  C  C82  1  0.39850000  0.23860000  0.51604000  1.0
  C  C83  1  0.39580000  0.19168000  0.53517000  1.0
  C  C84  1  0.44164000  0.20360000  0.56223000  1.0
  C  C85  1  0.49008000  0.26192000  0.57108000  1.0
  C  C86  1  0.48004000  0.30900000  0.55345000  1.0
  C  C87  1  0.43474000  0.29690000  0.52628000  1.0
  C  C88  1  0.48764000  0.74118000  0.94753000  1.0
  C  C89  1  0.48772000  0.78986000  0.96539000  1.0
  C  C90  1  0.44604000  0.78010000  0.99310000  1.0
  C  C91  1  0.40424000  0.72252000  0.00379000  1.0
  C  C92  1  0.39384000  0.67436000  0.98483000  1.0
  C  C93  1  0.43554000  0.68400000  0.95715000  1.0
  C  C94  1  0.00234000  0.28322000  0.01789000  1.0
  C  C95  1  0.95384000  0.30222000  0.04127000  1.0
  C  C96  1  0.95682000  0.27754000  0.06853000  1.0
  C  C97  1  0.00664000  0.23370000  0.07298000  1.0
  C  C98  1  0.06412000  0.21970000  0.05045000  1.0
  C  C99  1  0.06178000  0.24450000  0.02331000  1.0
  C  C100  1  0.50820000  0.19660000  0.07007000  1.0
  C  C101  1  0.56228000  0.25332000  0.05981000  1.0
  C  C102  1  0.60284000  0.25964000  0.03200000  1.0
  C  C103  1  0.59244000  0.21044000  0.01398000  1.0
  C  C104  1  0.55130000  0.15332000  0.02569000  1.0
  C  C105  1  0.50944000  0.14698000  0.05338000  1.0
  C  C106  1  0.96945000  0.65299000  0.00468000  1.0
  C  C107  1  0.00252000  0.62776000  0.98028000  1.0
  C  C108  1  0.00130000  0.65352000  0.95321000  1.0
  C  C109  1  0.96722000  0.70406000  0.94976000  1.0
  C  C110  1  0.92326000  0.72478000  0.97337000  1.0
  C  C111  1  0.92474000  0.69936000  0.00042000  1.0
  C  C112  1  0.84098000  0.00368000  0.59874000  1.0
  C  C113  1  0.84362000  0.02202000  0.62778000  1.0
  C  C114  1  0.81292000  0.07182000  0.63500000  1.0
  C  C115  1  0.77822000  0.10398000  0.61393000  1.0
  C  C116  1  0.77336000  0.08482000  0.58497000  1.0
  C  C117  1  0.80498000  0.03534000  0.57771000  1.0
  C  C118  1  0.14926000  0.96174000  0.42343000  1.0
  C  C119  1  0.19166000  0.92972000  0.44303000  1.0
  C  C120  1  0.22058000  0.88070000  0.43346000  1.0
  C  C121  1  0.20844000  0.86252000  0.40452000  1.0
  C  C122  1  0.16418000  0.89372000  0.38509000  1.0
  C  C123  1  0.13546000  0.94278000  0.39462000  1.0
  C  C124  1  0.13820000  0.44542000  0.09785000  1.0
  C  C125  1  0.09850000  0.41002000  0.12211000  1.0
  C  C126  1  0.13784000  0.36376000  0.12998000  1.0
  C  C127  1  0.21340000  0.35024000  0.11352000  1.0
  C  C128  1  0.24952000  0.38348000  0.08851000  1.0
  C  C129  1  0.21238000  0.43082000  0.08104000  1.0
  C  C130  1  0.77824000  0.58476000  0.90407000  1.0
  C  C131  1  0.76458000  0.56264000  0.93249000  1.0
  C  C132  1  0.79690000  0.51354000  0.93988000  1.0
  C  C133  1  0.84308000  0.48570000  0.91952000  1.0
  C  C134  1  0.85736000  0.50828000  0.89113000  1.0
  C  C135  1  0.82470000  0.55720000  0.88375000  1.0
  C  C136  1  0.36332000  0.60898000  0.62901000  1.0
  C  C137  1  0.30667000  0.59810000  0.65475500  1.0
  C  C138  1  0.24172000  0.54164000  0.66047000  1.0
  C  C139  1  0.23089000  0.49428000  0.64105000  1.0
  C  C140  1  0.28507000  0.50596000  0.61470500  1.0
  C  C141  1  0.34962000  0.56268000  0.60899000  1.0
  C  C142  1  0.76724000  0.47656000  0.37918000  1.0
  C  C143  1  0.76480000  0.42420000  0.36378000  1.0
  C  C144  1  0.69604000  0.37010000  0.37156000  1.0
  C  C145  1  0.63024000  0.36568000  0.39508000  1.0
  C  C146  1  0.63568000  0.41712000  0.41133000  1.0
  C  C147  1  0.70320000  0.47160000  0.40329000  1.0
  C  C148  1  0.63778000  0.85078000  0.12457000  1.0
  C  C149  1  0.65024000  0.90140000  0.10714000  1.0
  C  C150  1  0.71884000  0.95550000  0.11522000  1.0
  C  C151  1  0.77726000  0.96098000  0.14056000  1.0
  C  C152  1  0.76828000  0.90920000  0.15715000  1.0
  C  C153  1  0.69850000  0.85550000  0.14926000  1.0
  C  C154  1  0.37566000  0.07874000  0.89331000  1.0
  C  C155  1  0.31240000  0.04300000  0.91441500  1.0
  C  C156  1  0.24834000  0.98686000  0.90701000  1.0
  C  C157  1  0.24468000  0.96492000  0.87877000  1.0
  C  C158  1  0.30926000  0.00002000  0.85793000  1.0
  C  C159  1  0.37282000  0.05580000  0.86525000  1.0
  C  C160  1  0.85220000  0.50812000  0.65070000  1.0
  C  C161  1  0.78020000  0.53756000  0.65850000  1.0
  C  C162  1  0.79452000  0.59598000  0.65031000  1.0
  C  C163  1  0.88056000  0.62646000  0.63454000  1.0
  C  C164  1  0.95858000  0.59882000  0.62981000  1.0
  C  C165  1  0.94330000  0.53980000  0.63782000  1.0
  C  C166  1  0.12904000  0.46074000  0.37271000  1.0
  C  C167  1  0.05860000  0.43108000  0.39333000  1.0
  C  C168  1  0.05036000  0.37206000  0.39955000  1.0
  C  C169  1  0.11244000  0.34224000  0.38555000  1.0
  C  C170  1  0.17700000  0.37106000  0.36312000  1.0
  C  C171  1  0.18532000  0.43012000  0.35713000  1.0
  C  C172  1  0.14574000  0.95028000  0.14978000  1.0
  C  C173  1  0.21460000  0.91972000  0.15876000  1.0
  C  C174  1  0.19892000  0.86100000  0.15091000  1.0
  C  C175  1  0.11494000  0.83146000  0.13407000  1.0
  C  C176  1  0.04038000  0.86076000  0.12757000  1.0
  C  C177  1  0.05674000  0.91992000  0.13550000  1.0
  C  C178  1  0.85016000  0.09888000  0.89220000  1.0
  C  C179  1  0.75582000  0.05710000  0.89635000  1.0
  C  C180  1  0.74230000  0.99916000  0.88772000  1.0
  C  C181  1  0.82150000  0.98124000  0.87483000  1.0
  C  C182  1  0.91656000  0.02336000  0.87073000  1.0
  C  C183  1  0.93028000  0.08172000  0.87969000  1.0
  C  C184  1  0.26614000  0.26120000  0.69193000  1.0
  C  C185  1  0.27956000  0.21048000  0.67834000  1.0
  C  C186  1  0.37418000  0.19966000  0.67935000  1.0
  C  C187  1  0.45592000  0.24040000  0.69282000  1.0
  C  C188  1  0.43602000  0.28288000  0.71152000  1.0
  C  C189  1  0.34098000  0.29338000  0.71085000  1.0
  C  C190  1  0.41714000  0.87322000  0.60709000  1.0
  C  C191  1  0.38888000  0.89300000  0.58054000  1.0
  C  C192  1  0.30004000  0.91048000  0.57890000  1.0
  C  C193  1  0.23918000  0.90722000  0.60336000  1.0
  C  C194  1  0.27848000  0.89964000  0.63051000  1.0
  C  C195  1  0.36758000  0.88280000  0.63229000  1.0
  C  C196  1  0.72658000  0.70606000  0.32663000  1.0
  C  C197  1  0.71256000  0.75712000  0.33967000  1.0
  C  C198  1  0.61658000  0.76618000  0.33949000  1.0
  C  C199  1  0.53430000  0.72336000  0.32739000  1.0
  C  C200  1  0.55360000  0.67978000  0.30925000  1.0
  C  C201  1  0.65006000  0.67126000  0.30901000  1.0
  C  C202  1  0.75312000  0.05804000  0.41897000  1.0
  C  C203  1  0.70850000  0.06222000  0.39220000  1.0
  C  C204  1  0.62312000  0.08284000  0.39094000  1.0
  C  C205  1  0.58188000  0.09900000  0.41630000  1.0
  C  C206  1  0.61380000  0.08222000  0.44308000  1.0
  C  C207  1  0.69906000  0.06118000  0.44418000  1.0
  C  C208  1  0.57636000  0.58364000  0.10811500  1.0
  C  C209  1  0.60536000  0.56268000  0.08195500  1.0
  C  C210  1  0.69250000  0.54342000  0.08117000  1.0
  C  C211  1  0.75094000  0.54608000  0.10610000  1.0
  C  C212  1  0.70954000  0.55414000  0.13287000  1.0
  C  C213  1  0.62230000  0.57302000  0.13380000  1.0
  C  C214  1  0.54548000  0.21700000  0.19178000  1.0
  C  C215  1  0.63210000  0.25658000  0.17951000  1.0
  C  C216  1  0.72364000  0.24202000  0.17981000  1.0
  C  C217  1  0.73048000  0.18992000  0.19319000  1.0
  C  C218  1  0.65040000  0.15820000  0.21087000  1.0
  C  C219  1  0.55856000  0.17262000  0.21038000  1.0
  C  C220  1  0.40610000  0.34742000  0.91151000  1.0
  C  C221  1  0.35920000  0.36404000  0.88705000  1.0
  C  C222  1  0.27406000  0.38416000  0.89086000  1.0
  C  C223  1  0.23560000  0.38728000  0.91848000  1.0
  C  C224  1  0.29556000  0.38420000  0.94254000  1.0
  C  C225  1  0.38024000  0.36362000  0.93894000  1.0
  C  C226  1  0.42722000  0.69990000  0.82775000  1.0
  C  C227  1  0.40208000  0.73672000  0.80690000  1.0
  C  C228  1  0.30882000  0.74914000  0.80862000  1.0
  C  C229  1  0.24054000  0.72410000  0.83070000  1.0
  C  C230  1  0.25670000  0.67698000  0.84690000  1.0
  C  C231  1  0.34974000  0.66436000  0.84491000  1.0
  C  C232  1  0.77708000  0.30384000  0.81203000  1.0
  C  C233  1  0.72118000  0.27270000  0.78847000  1.0
  C  C234  1  0.75256000  0.28890000  0.76039000  1.0
  C  C235  1  0.83990000  0.33528000  0.75491000  1.0
  C  C236  1  0.89398000  0.36768000  0.77836000  1.0
  C  C237  1  0.86288000  0.35132000  0.80655000  1.0
  C  C238  1  0.79676000  0.83204000  0.70474000  1.0
  C  C239  1  0.73718000  0.84578000  0.72699000  1.0
  C  C240  1  0.76794000  0.84532000  0.75568000  1.0
  C  C241  1  0.85804000  0.83170000  0.76266000  1.0
  C  C242  1  0.91958000  0.82034000  0.74015000  1.0
  C  C243  1  0.88904000  0.82132000  0.71161000  1.0
  C  C244  1  0.15906000  0.62806000  0.26566000  1.0
  C  C245  1  0.24330000  0.67432000  0.25693000  1.0
  C  C246  1  0.27200000  0.67938000  0.22806000  1.0
  C  C247  1  0.21674000  0.64004000  0.20715000  1.0
  C  C248  1  0.13292000  0.59350000  0.21588000  1.0
  C  C249  1  0.10528000  0.58770000  0.24493000  1.0
  C  C250  1  0.16676000  0.12270000  0.25495000  1.0
  C  C251  1  0.25348000  0.16836000  0.26280000  1.0
  C  C252  1  0.28024000  0.17742000  0.29172000  1.0
  C  C253  1  0.22150000  0.14262000  0.31355000  1.0
  C  C254  1  0.13620000  0.09608000  0.30577000  1.0
  C  C255  1  0.10998000  0.08636000  0.27671000  1.0
  Cl  Cl256  1  0.06522000  0.08556000  0.53948000  1.0
  Cl  Cl257  1  0.88910000  0.30578000  0.55006000  1.0
  Cl  Cl258  1  0.57678000  0.82792000  0.43825000  1.0
  Cl  Cl259  1  0.52652000  0.60052000  0.51577000  1.0
  Cl  Cl260  1  0.89334000  0.87446000  0.48097000  1.0
  Cl  Cl261  1  0.13400000  0.68350000  0.46458000  1.0
  Cl  Cl262  1  0.34052000  0.11698000  0.52581000  1.0
  Cl  Cl263  1  0.52826000  0.38408000  0.56311000  1.0
  Cl  Cl264  1  0.54670000  0.86384000  0.95549000  1.0
  Cl  Cl265  1  0.33290000  0.60086000  0.99505000  1.0
  Cl  Cl266  1  0.88126000  0.35258000  0.03736000  1.0
  Cl  Cl267  1  0.13864000  0.17050000  0.05501000  1.0
  Cl  Cl268  1  0.57912000  0.31848000  0.08022000  1.0
  Cl  Cl269  1  0.54120000  0.08812000  0.00586000  1.0
  Cl  Cl270  1  0.05066000  0.56600000  0.98219000  1.0
  Cl  Cl271  1  0.86638000  0.78282000  0.97022000  1.0
  Cl  Cl272  1  0.88130000  0.98354000  0.65630000  1.0
  Cl  Cl273  1  0.72520000  0.11932000  0.55685000  1.0
  Cl  Cl274  1  0.20792000  0.94770000  0.47988000  1.0
  Cl  Cl275  1  0.13934000  0.87212000  0.34890000  1.0
  Cl  Cl276  1  0.99620000  0.41916000  0.14267000  1.0
  Cl  Cl277  1  0.34530000  0.36964000  0.06672000  1.0
  Cl  Cl278  1  0.70346000  0.59264000  0.95946000  1.0
  Cl  Cl279  1  0.91322000  0.47686000  0.86350000  1.0
  Cl  Cl280  1  0.31168000  0.65434000  0.68019000  1.0
  Cl  Cl281  1  0.27800000  0.45156000  0.58813000  1.0
  Cl  Cl282  1  0.84794000  0.42276000  0.33507000  1.0
  Cl  Cl283  1  0.55428000  0.41640000  0.44069000  1.0
  Cl  Cl284  1  0.57614000  0.90040000  0.07612000  1.0
  Cl  Cl285  1  0.84284000  0.90804000  0.18789000  1.0
  Cl  Cl286  1  0.30806000  0.06634000  0.95028000  1.0
  Cl  Cl287  1  0.31760000  0.97520000  0.82246000  1.0
  Cl  Cl288  1  0.66954000  0.50242000  0.67810000  1.0
  Cl  Cl289  1  0.07596000  0.63480000  0.61366000  1.0
  Cl  Cl290  1  0.98850000  0.46828000  0.41406000  1.0
  Cl  Cl291  1  0.24950000  0.33584000  0.34198000  1.0
  Cl  Cl292  1  0.32298000  0.95396000  0.17944000  1.0
  Cl  Cl293  1  0.92760000  0.82754000  0.10856000  1.0
  Cl  Cl294  1  0.65360000  0.07446000  0.91373000  1.0
  Cl  Cl295  1  0.01910000  0.00632000  0.85359000  1.0
  Cl  Cl296  1  0.18318000  0.16330000  0.65738000  1.0
  Cl  Cl297  1  0.53362000  0.33038000  0.73193000  1.0
  Cl  Cl298  1  0.45690000  0.89150000  0.54854000  1.0
  Cl  Cl299  1  0.20792000  0.90026000  0.66212000  1.0
  Cl  Cl300  1  0.81034000  0.80678000  0.35916000  1.0
  Cl  Cl301  1  0.45498000  0.62876000  0.29070000  1.0
  Cl  Cl302  1  0.76916000  0.05272000  0.35990000  1.0
  Cl  Cl303  1  0.55526000  0.09120000  0.47585000  1.0
  Cl  Cl304  1  0.54050000  0.56460000  0.04941000  1.0
  Cl  Cl305  1  0.77562000  0.55146000  0.16510000  1.0
  Cl  Cl306  1  0.62578000  0.31830000  0.15896000  1.0
  Cl  Cl307  1  0.65516000  0.09394000  0.22951000  1.0
  Cl  Cl308  1  0.39310000  0.35294000  0.85133000  1.0
  Cl  Cl309  1  0.25490000  0.39292000  0.97783000  1.0
  Cl  Cl310  1  0.49294000  0.77620000  0.78208000  1.0
  Cl  Cl311  1  0.16666000  0.63688000  0.87185000  1.0
  Cl  Cl312  1  0.61592000  0.20972000  0.79254000  1.0
  Cl  Cl313  1  0.99978000  0.42992000  0.77364000  1.0
  Cl  Cl314  1  0.62408000  0.86438000  0.71975000  1.0
  Cl  Cl315  1  0.03102000  0.79894000  0.74626000  1.0
  Cl  Cl316  1  0.30890000  0.73068000  0.28058000  1.0
  Cl  Cl317  1  0.06122000  0.54114000  0.19141000  1.0
  Cl  Cl318  1  0.32614000  0.21922000  0.23783000  1.0
  Cl  Cl319  1  0.06086000  0.04834000  0.33146000  1.0
  H  H320  1  0.05162000  0.15760000  0.58620000  1.0
  H  H321  1  0.91340000  0.23882000  0.50244000  1.0
  H  H322  1  0.63458000  0.81532000  0.49506000  1.0
  H  H323  1  0.45766000  0.61380000  0.46037000  1.0
  H  H324  1  0.91844000  0.80780000  0.43313000  1.0
  H  H325  1  0.10758000  0.74870000  0.51291000  1.0
  H  H326  1  0.44342000  0.16656000  0.57585000  1.0
  H  H327  1  0.43486000  0.33370000  0.51227000  1.0
  H  H328  1  0.45332000  0.81786000  0.00711000  1.0
  H  H329  1  0.43062000  0.64602000  0.94348000  1.0
  H  H330  1  0.91432000  0.28998000  0.08590000  1.0
  H  H331  1  0.10368000  0.23136000  0.00601000  1.0
  H  H332  1  0.63746000  0.30380000  0.02377000  1.0
  H  H333  1  0.47214000  0.10280000  0.06112000  1.0
  H  H334  1  0.03224000  0.63566000  0.93500000  1.0
  H  H335  1  0.89392000  0.71780000  0.01845000  1.0
  H  H336  1  0.81578000  0.08528000  0.65736000  1.0
  H  H337  1  0.80202000  0.02180000  0.55536000  1.0
  H  H338  1  0.25358000  0.85688000  0.44882000  1.0
  H  H339  1  0.10158000  0.96612000  0.37926000  1.0
  H  H340  1  0.10760000  0.33726000  0.14875000  1.0
  H  H341  1  0.24294000  0.45692000  0.06220000  1.0
  H  H342  1  0.78586000  0.49712000  0.96178000  1.0
  H  H343  1  0.83552000  0.57378000  0.86187000  1.0
  H  H344  1  0.19986000  0.53488000  0.68053000  1.0
  H  H345  1  0.39198000  0.57010000  0.58900000  1.0
  H  H346  1  0.69432000  0.33088000  0.35914000  1.0
  H  H347  1  0.70354000  0.51064000  0.41566000  1.0
  H  H348  1  0.72416000  0.99396000  0.10188000  1.0
  H  H349  1  0.69150000  0.81688000  0.16265000  1.0
  H  H350  1  0.19932000  0.96070000  0.92333000  1.0
  H  H351  1  0.42142000  0.08120000  0.84864000  1.0
  H  H352  1  0.73570000  0.61676000  0.65548500  1.0
  H  H353  1  0.00024000  0.51766000  0.63248500  1.0
  H  H354  1  0.99920000  0.35058000  0.41656000  1.0
  H  H355  1  0.23912000  0.45312000  0.34098000  1.0
  H  H356  1  0.25498000  0.83910000  0.15737000  1.0
  H  H357  1  0.00280000  0.94330000  0.12895000  1.0
  H  H358  1  0.66908000  0.96778000  0.89175000  1.0
  H  H359  1  0.00294000  0.11418000  0.87626000  1.0
  H  H360  1  0.38722000  0.16516000  0.66573000  1.0
  H  H361  1  0.32998000  0.33100000  0.72246000  1.0
  H  H362  1  0.27144000  0.91800000  0.55792000  1.0
  H  H363  1  0.39080000  0.87054000  0.65312000  1.0
  H  H364  1  0.60380000  0.80132000  0.35270000  1.0
  H  H365  1  0.66134000  0.63308000  0.29796000  1.0
  H  H366  1  0.59634000  0.09216000  0.37003000  1.0
  H  H367  1  0.73140000  0.05604000  0.46498000  1.0
  H  H368  1  0.72214000  0.53504000  0.06047000  1.0
  H  H369  1  0.59790000  0.58578000  0.15437000  1.0
  H  H370  1  0.78692000  0.26842000  0.16727000  1.0
  H  H371  1  0.49298000  0.14300000  0.22077000  1.0
  H  H372  1  0.22920000  0.38854000  0.87222000  1.0
  H  H373  1  0.41958000  0.35480000  0.95790000  1.0
  H  H374  1  0.29518000  0.78336000  0.79494000  1.0
  H  H375  1  0.36646000  0.63368000  0.86023000  1.0
  H  H376  1  0.71097000  0.26297000  0.74273000  1.0
  H  H377  1  0.90582000  0.37602000  0.82429000  1.0
  H  H378  1  0.72124000  0.85552000  0.77259000  1.0
  H  H379  1  0.93468000  0.80964000  0.69481000  1.0
  H  H380  1  0.33570000  0.71618000  0.22177000  1.0
  H  H381  1  0.04000000  0.55194000  0.25131000  1.0
  H  H382  1  0.34568000  0.21388000  0.29722000  1.0
  H  H383  1  0.04336000  0.05076000  0.27115000  1.0
  O  O384  1  0.81794000  0.32526000  0.70313500  1.0
  O  O385  1  0.97836000  0.36140000  0.72163000  1.0
  O  O386  1  0.03802000  0.23776000  0.62155000  1.0
  O  O387  1  0.01438000  0.31568000  0.60086000  1.0
  O  O388  1  0.97206000  0.31274000  0.66362000  1.0
  O  O389  1  0.89343000  0.41622000  0.65897000  1.0
  O  O390  1  0.73324000  0.41448000  0.64447000  1.0
  O  O391  1  0.72688000  0.19336000  0.60488000  1.0
  O  O392  1  0.72412000  0.16520000  0.64981000  1.0
  O  O393  1  0.76710000  0.29816000  0.64023000  1.0
  O  O394  1  0.59072000  0.31032000  0.66994000  1.0
  O  O395  1  0.58222000  0.21296000  0.66414000  1.0
  O  O396  1  0.60134000  0.32398000  0.60692000  1.0
  O  O397  1  0.57770000  0.22520000  0.60885000  1.0
  O  O398  1  0.12306000  0.42648000  0.67517000  1.0
  O  O399  1  0.14992000  0.38870000  0.63176000  1.0
  O  O400  1  0.14236000  0.31408000  0.70091000  1.0
  O  O401  1  0.16612000  0.28766000  0.65482000  1.0
  O  O402  1  0.82022000  0.82572000  0.65339000  1.0
  O  O403  1  0.66098000  0.78922000  0.67250000  1.0
  O  O404  1  0.60332000  0.78612000  0.54855000  1.0
  O  O405  1  0.58584000  0.69310000  0.55701000  1.0
  O  O406  1  0.66450000  0.76808000  0.61005000  1.0
  O  O407  1  0.81229000  0.70968000  0.63031000  1.0
  O  O408  1  0.95452000  0.71126000  0.60456000  1.0
  O  O409  1  0.86126000  0.92914000  0.56405000  1.0
  O  O410  1  0.93578000  0.93180000  0.60602000  1.0
  O  O411  1  0.87758000  0.81298000  0.59164000  1.0
  O  O412  1  0.08700000  0.83134000  0.60779000  1.0
  O  O413  1  0.08180000  0.91072000  0.58116000  1.0
  O  O414  1  0.00994000  0.78170000  0.55125000  1.0
  O  O415  1  0.96140000  0.86320000  0.53829000  1.0
  O  O416  1  0.49158000  0.69796000  0.64425000  1.0
  O  O417  1  0.46088000  0.68428000  0.59627000  1.0
  O  O418  1  0.52426000  0.82668000  0.63332000  1.0
  O  O419  1  0.48818000  0.79960000  0.58660000  1.0
  O  O420  1  0.17856000  0.64134000  0.31755000  1.0
  O  O421  1  0.01894000  0.60792000  0.29808000  1.0
  O  O422  1  0.95176000  0.73364000  0.39656000  1.0
  O  O423  1  0.98412000  0.65884000  0.41807000  1.0
  O  O424  1  0.02336000  0.65868000  0.35558000  1.0
  O  O425  1  0.09498000  0.55354000  0.36278000  1.0
  O  O426  1  0.25378000  0.55226000  0.37772000  1.0
  O  O427  1  0.26516000  0.77612000  0.41451000  1.0
  O  O428  1  0.26658000  0.80132000  0.36914000  1.0
  O  O429  1  0.22498000  0.66996000  0.38053000  1.0
  O  O430  1  0.39980000  0.65490000  0.35131000  1.0
  O  O431  1  0.41006000  0.75284000  0.35606000  1.0
  O  O432  1  0.38990000  0.64460000  0.41444000  1.0
  O  O433  1  0.41286000  0.74342000  0.41166000  1.0
  O  O434  1  0.87280000  0.54450000  0.34444000  1.0
  O  O435  1  0.84722000  0.58178000  0.38813000  1.0
  O  O436  1  0.85394000  0.65580000  0.31775000  1.0
  O  O437  1  0.82732000  0.68112000  0.36383000  1.0
  O  O438  1  0.18406000  0.14938000  0.36455000  1.0
  O  O439  1  0.34772000  0.18496000  0.34862000  1.0
  O  O440  1  0.39100000  0.18022000  0.47227000  1.0
  O  O441  1  0.39618000  0.27240000  0.46627000  1.0
  O  O442  1  0.33250000  0.20130000  0.41112000  1.0
  O  O443  1  0.18978000  0.26282000  0.39120000  1.0
  O  O444  1  0.03282000  0.25248000  0.41060000  1.0
  O  O445  1  0.13540000  0.04112000  0.45660000  1.0
  O  O446  1  0.05696000  0.03384000  0.41499000  1.0
  O  O447  1  0.11588000  0.15438000  0.42602000  1.0
  O  O448  1  0.90562000  0.13062000  0.40971000  1.0
  O  O449  1  0.91338000  0.05744000  0.44016000  1.0
  O  O450  1  0.98114000  0.18712000  0.46535000  1.0
  O  O451  1  0.03814000  0.11036000  0.48077000  1.0
  O  O452  1  0.50972000  0.27508000  0.37924000  1.0
  O  O453  1  0.52954000  0.29000000  0.42752000  1.0
  O  O454  1  0.47750000  0.14592000  0.38915000  1.0
  O  O455  1  0.51136000  0.17426000  0.43574000  1.0
  O  O456  1  0.18208000  0.63876000  0.15563000  1.0
  O  O457  1  0.34408000  0.67874000  0.17192000  1.0
  O  O458  1  0.39448000  0.66530000  0.04814000  1.0
  O  O459  1  0.40282000  0.75814000  0.05334000  1.0
  O  O460  1  0.33198000  0.68994000  0.10886000  1.0
  O  O461  1  0.18792000  0.75060000  0.12828000  1.0
  O  O462  1  0.03212000  0.74128000  0.10865000  1.0
  O  O463  1  0.12458000  0.52434000  0.06483000  1.0
  O  O464  1  0.05252000  0.52098000  0.10725000  1.0
  O  O465  1  0.11354000  0.64138000  0.09398000  1.0
  O  O466  1  0.90504000  0.61958000  0.11276000  1.0
  O  O467  1  0.90767000  0.54409000  0.08326000  1.0
  O  O468  1  0.97218000  0.67122000  0.05559000  1.0
  O  O469  1  0.02570000  0.59280000  0.04076000  1.0
  O  O470  1  0.51048000  0.76332000  0.14077000  1.0
  O  O471  1  0.53502000  0.77466000  0.09250000  1.0
  O  O472  1  0.47200000  0.63342000  0.13333000  1.0
  O  O473  1  0.50868000  0.65762000  0.08636000  1.0
  O  O474  1  0.18670000  0.13374000  0.20283000  1.0
  O  O475  1  0.02766000  0.09582000  0.22198000  1.0
  O  O476  1  0.95298000  0.21826000  0.12292000  1.0
  O  O477  1  0.99000000  0.14438000  0.10185000  1.0
  O  O478  1  0.02938000  0.14550000  0.16425000  1.0
  O  O479  1  0.10764000  0.04246000  0.15890000  1.0
  O  O480  1  0.26640000  0.04326000  0.14329000  1.0
  O  O481  1  0.26898000  0.29042000  0.14956000  1.0
  O  O482  1  0.27598000  0.26572000  0.10420000  1.0
  O  O483  1  0.23274000  0.15966000  0.13942000  1.0
  O  O484  1  0.41102000  0.14786000  0.16826000  1.0
  O  O485  1  0.41780000  0.24528000  0.16342000  1.0
  O  O486  1  0.39778000  0.13444000  0.10556000  1.0
  O  O487  1  0.42094000  0.23314000  0.10827000  1.0
  O  O488  1  0.88298000  0.02944000  0.17533000  1.0
  O  O489  1  0.85510000  0.06642000  0.13178500  1.0
  O  O490  1  0.85878000  0.13976000  0.20208000  1.0
  O  O491  1  0.83106000  0.16476000  0.15603000  1.0
  O  O492  1  0.81302000  0.29676000  0.86309000  1.0
  O  O493  1  0.64934000  0.26360000  0.84704000  1.0
  O  O494  1  0.59342000  0.26916000  0.97095000  1.0
  O  O495  1  0.60058000  0.17936000  0.96363000  1.0
  O  O496  1  0.66132000  0.25306000  0.90987000  1.0
  O  O497  1  0.79314000  0.18502000  0.89310000  1.0
  O  O498  1  0.94574000  0.18898000  0.91436000  1.0
  O  O499  1  0.85288000  0.40768000  0.95348000  1.0
  O  O500  1  0.93808000  0.41388000  0.91304000  1.0
  O  O501  1  0.87548000  0.29378000  0.92564000  1.0
  O  O502  1  0.08580000  0.31018000  0.91248000  1.0
  O  O503  1  0.07534000  0.38990000  0.93843000  1.0
  O  O504  1  0.99960000  0.26008000  0.96769000  1.0
  O  O505  1  0.95388000  0.34284000  0.98017000  1.0
  O  O506  1  0.49512000  0.17046000  0.87765500  1.0
  O  O507  1  0.46440000  0.15998000  0.92550000  1.0
  O  O508  1  0.50972000  0.29826000  0.88511000  1.0
  O  O509  1  0.48048000  0.27604000  0.93256000  1.0
  O  O510  1  0.81904000  0.81274000  0.81361000  1.0
  O  O511  1  0.98502000  0.84442000  0.79899000  1.0
  O  O512  1  0.01562000  0.71446000  0.89933000  1.0
  O  O513  1  0.99974000  0.79400000  0.92032000  1.0
  O  O514  1  0.96208000  0.79402000  0.85694000  1.0
  O  O515  1  0.87428000  0.89326000  0.86394000  1.0
  O  O516  1  0.70552000  0.88630000  0.86767000  1.0
  O  O517  1  0.72440000  0.67306000  0.91247000  1.0
  O  O518  1  0.71476000  0.64074000  0.86798000  1.0
  O  O519  1  0.74844000  0.77296000  0.87432000  1.0
  O  O520  1  0.56632000  0.77574000  0.84483000  1.0
  O  O521  1  0.56184000  0.68072000  0.85598000  1.0
  O  O522  1  0.58246000  0.79824000  0.90741000  1.0
  O  O523  1  0.57314000  0.70110000  0.91057000  1.0
  O  O524  1  0.13240000  0.89930000  0.84518000  1.0
  O  O525  1  0.14544000  0.86354000  0.89012000  1.0
  O  O526  1  0.12568000  0.78200000  0.82061000  1.0
  O  O527  1  0.14824000  0.75930000  0.86727000  1.0
  Zn  Zn528  1  0.67606000  0.33616000  0.64025000  1.0
  Zn  Zn529  1  0.67922000  0.22654000  0.63534000  1.0
  Zn  Zn530  1  0.05214000  0.35394000  0.68988000  1.0
  Zn  Zn531  1  0.06468000  0.31230000  0.63767000  1.0
  Zn  Zn532  1  0.86166000  0.33622000  0.66562000  1.0
  Zn  Zn533  1  0.97948000  0.78454000  0.58911000  1.0
  Zn  Zn534  1  0.94236000  0.88316000  0.57620000  1.0
  Zn  Zn535  1  0.58740000  0.76990000  0.63961000  1.0
  Zn  Zn536  1  0.56670000  0.74798000  0.58350000  1.0
  Zn  Zn537  1  0.79360000  0.78098000  0.62021000  1.0
  Zn  Zn538  1  0.31438000  0.63082000  0.38114000  1.0
  Zn  Zn539  1  0.31272000  0.74128000  0.38469000  1.0
  Zn  Zn540  1  0.94408000  0.61662000  0.32940000  1.0
  Zn  Zn541  1  0.93018000  0.65862000  0.38142000  1.0
  Zn  Zn542  1  0.13148000  0.63286000  0.35484000  1.0
  Zn  Zn543  1  0.01150000  0.18078000  0.42751000  1.0
  Zn  Zn544  1  0.05352000  0.08582000  0.44351000  1.0
  Zn  Zn545  1  0.41476000  0.20248000  0.38250000  1.0
  Zn  Zn546  1  0.42690000  0.22282000  0.43862000  1.0
  Zn  Zn547  1  0.20552000  0.18998000  0.39927000  1.0
  Zn  Zn548  1  0.00862000  0.66800000  0.09313000  1.0
  Zn  Zn549  1  0.04700000  0.57136000  0.07815000  1.0
  Zn  Zn550  1  0.41236000  0.69192000  0.13815000  1.0
  Zn  Zn551  1  0.42905000  0.70854000  0.08176000  1.0
  Zn  Zn552  1  0.20392000  0.67782000  0.12053000  1.0
  Zn  Zn553  1  0.32388000  0.12172000  0.13901000  1.0
  Zn  Zn554  1  0.31974000  0.23140000  0.13491000  1.0
  Zn  Zn555  1  0.95160000  0.10234000  0.19045000  1.0
  Zn  Zn556  1  0.93548000  0.14380000  0.13840000  1.0
  Zn  Zn557  1  0.14022000  0.12230000  0.16553000  1.0
  Zn  Zn558  1  0.97436000  0.26332000  0.92944000  1.0
  Zn  Zn559  1  0.93658000  0.36280000  0.94221000  1.0
  Zn  Zn560  1  0.58094000  0.24566000  0.88047000  1.0
  Zn  Zn561  1  0.56520000  0.22832000  0.93658000  1.0
  Zn  Zn562  1  0.78662000  0.25966000  0.89872000  1.0
  Zn  Zn563  1  0.65352000  0.80776000  0.87327000  1.0
  Zn  Zn564  1  0.66748000  0.70100000  0.88220000  1.0
  Zn  Zn565  1  0.04896000  0.83000000  0.83104000  1.0
  Zn  Zn566  1  0.05118000  0.78946000  0.88370000  1.0
  Zn  Zn567  1  0.85040000  0.81612000  0.85264000  1.0
