# generated using pymatgen
data_Fe3H18C18O13
_symmetry_space_group_name_H-M   'P 1'
_cell_length_a   20.48930000
_cell_length_b   20.48930000
_cell_length_c   32.76310000
_cell_angle_alpha   90.00000000
_cell_angle_beta   90.00000000
_cell_angle_gamma   90.00000000
_symmetry_Int_Tables_number   1
_chemical_formula_structural   Fe3H18C18O13
_chemical_formula_sum   'Fe24 H144 C144 O104'
_cell_volume   13754.32335408
_cell_formula_units_Z   8
loop_
 _symmetry_equiv_pos_site_id
 _symmetry_equiv_pos_as_xyz
  1  'x, y, z'
loop_
 _atom_site_type_symbol
 _atom_site_label
 _atom_site_symmetry_multiplicity
 _atom_site_fract_x
 _atom_site_fract_y
 _atom_site_fract_z
 _atom_site_occupancy
  C  C0  1  0.34766000  0.22606000  0.21281000  1.0
  C  C1  1  0.06800000  0.18810000  0.20641000  1.0
  C  C2  1  0.13034000  0.32368000  0.29989000  1.0
  C  C3  1  0.23546000  0.40346000  0.22426000  1.0
  C  C4  1  0.17718000  0.25858000  0.12994000  1.0
  C  C5  1  0.23718000  0.13456000  0.28046000  1.0
  C  C6  1  0.45200000  0.92758000  0.75567000  1.0
  C  C7  1  0.49642000  0.69414000  0.65979000  1.0
  C  C8  1  0.37590000  0.66350000  0.76740000  1.0
  C  C9  1  0.28030000  0.81074000  0.73758000  1.0
  C  C10  1  0.41090000  0.84568000  0.63391000  1.0
  C  C11  1  0.55344000  0.78272000  0.77673000  1.0
  C  C12  1  0.72900000  0.86310000  0.21952000  1.0
  C  C13  1  0.96442000  0.96074000  0.14408000  1.0
  C  C14  1  0.99520000  0.87006000  0.26270000  1.0
  C  C15  1  0.89980000  0.72980000  0.22956000  1.0
  C  C16  1  0.85148000  0.83192000  0.11195000  1.0
  C  C17  1  0.83292000  0.00372000  0.24645000  1.0
  C  C18  1  0.78592000  0.20690000  0.70521000  1.0
  C  C19  1  0.62760000  0.42880000  0.65798000  1.0
  C  C20  1  0.74740000  0.46456000  0.76399000  1.0
  C  C21  1  0.88816000  0.39588000  0.70841000  1.0
  C  C22  1  0.76428000  0.35060000  0.60303000  1.0
  C  C23  1  0.64018000  0.27700000  0.75037000  1.0
  C  C24  1  0.84976000  0.32354000  0.32849000  1.0
  C  C25  1  0.61572000  0.47204000  0.35822000  1.0
  C  C26  1  0.60292000  0.34368000  0.25254000  1.0
  C  C27  1  0.67206000  0.21212000  0.31544000  1.0
  C  C28  1  0.69312000  0.34016000  0.42001000  1.0
  C  C29  1  0.77378000  0.46612000  0.27499000  1.0
  C  C30  1  0.22380000  0.43448000  0.83783000  1.0
  C  C31  1  0.16564000  0.18028000  0.90637000  1.0
  C  C32  1  0.29610000  0.17472000  0.80150000  1.0
  C  C33  1  0.39244000  0.30618000  0.84862000  1.0
  C  C34  1  0.25212000  0.31894000  0.95163000  1.0
  C  C35  1  0.12136000  0.29874000  0.79978000  1.0
  C  C36  1  0.22850000  0.73896000  0.34800000  1.0
  C  C37  1  0.46424000  0.66946000  0.43446000  1.0
  C  C38  1  0.49876000  0.75512000  0.31822000  1.0
  C  C39  1  0.38276000  0.88842000  0.34228000  1.0
  C  C40  1  0.33546000  0.78884000  0.46042000  1.0
  C  C41  1  0.34868000  0.60784000  0.32984000  1.0
  C  C42  1  0.88126000  0.69956000  0.83444000  1.0
  C  C43  1  0.05064000  0.91656000  0.87331000  1.0
  C  C44  1  0.89492000  0.96740000  0.79480000  1.0
  C  C45  1  0.77954000  0.87664000  0.86278000  1.0
  C  C46  1  0.94692000  0.81620000  0.93961000  1.0
  C  C47  1  0.00272000  0.78600000  0.77147000  1.0
  C  C48  1  0.16708000  0.25696000  0.08461000  1.0
  C  C49  1  0.21828000  0.29422000  0.06129000  1.0
  C  C50  1  0.20996000  0.30492000  0.02113000  1.0
  C  C51  1  0.26020000  0.33926000  0.99531000  1.0
  C  C52  1  0.39696000  0.88218000  0.59509000  1.0
  C  C53  1  0.35038000  0.84710000  0.56694000  1.0
  C  C54  1  0.35828000  0.84822000  0.52623000  1.0
  C  C55  1  0.30724000  0.82070000  0.49782000  1.0
  C  C56  1  0.83070000  0.79958000  0.07290000  1.0
  C  C57  1  0.88782000  0.78494000  0.04548000  1.0
  C  C58  1  0.89468000  0.81200000  0.00839000  1.0
  C  C59  1  0.95518000  0.79888000  0.98373000  1.0
  C  C60  1  0.79034000  0.34438000  0.56044000  1.0
  C  C61  1  0.73738000  0.32500000  0.53101000  1.0
  C  C62  1  0.74216000  0.33784000  0.49086000  1.0
  C  C63  1  0.69400000  0.30848000  0.46137000  1.0
  C  C64  1  0.00788000  0.01286000  0.12768000  1.0
  C  C65  1  0.02696000  0.05654000  0.16241000  1.0
  C  C66  1  0.99262000  0.11028000  0.17172000  1.0
  C  C67  1  0.00644000  0.14898000  0.20971000  1.0
  C  C68  1  0.56266000  0.46074000  0.65191000  1.0
  C  C69  1  0.56956000  0.53026000  0.63788000  1.0
  C  C70  1  0.53104000  0.57768000  0.65261000  1.0
  C  C71  1  0.53356000  0.64534000  0.63484000  1.0
  C  C72  1  0.51138000  0.62196000  0.45283000  1.0
  C  C73  1  0.55812000  0.59926000  0.42043000  1.0
  C  C74  1  0.54382000  0.54916000  0.39555000  1.0
  C  C75  1  0.58228000  0.53688000  0.35725000  1.0
  C  C76  1  0.12354000  0.12552000  0.92129000  1.0
  C  C77  1  0.12268000  0.07012000  0.89112000  1.0
  C  C78  1  0.11300000  0.00826000  0.90316000  1.0
  C  C79  1  0.11422000  0.95238000  0.87340000  1.0
  C  C80  1  0.38320000  0.95902000  0.32990000  1.0
  C  C81  1  0.31548000  0.98728000  0.32678000  1.0
  C  C82  1  0.30604000  0.04632000  0.30973000  1.0
  C  C83  1  0.24018000  0.07906000  0.31038000  1.0
  C  C84  1  0.70894000  0.87846000  0.87441000  1.0
  C  C85  1  0.67354000  0.82064000  0.85674000  1.0
  C  C86  1  0.64164000  0.82400000  0.82099000  1.0
  C  C87  1  0.61128000  0.76432000  0.80213000  1.0
  C  C88  1  0.82950000  0.06696000  0.26915000  1.0
  C  C89  1  0.75958000  0.08700000  0.27558000  1.0
  C  C90  1  0.73946000  0.11320000  0.31102000  1.0
  C  C91  1  0.67132000  0.13914000  0.31671000  1.0
  C  C92  1  0.58752000  0.24684000  0.77580000  1.0
  C  C93  1  0.54828000  0.29782000  0.79784000  1.0
  C  C94  1  0.50286000  0.27986000  0.82514000  1.0
  C  C95  1  0.46178000  0.32884000  0.84769000  1.0
  C  C96  1  0.90880000  0.65942000  0.24078000  1.0
  C  C97  1  0.84634000  0.62166000  0.23669000  1.0
  C  C98  1  0.83998000  0.56234000  0.25378000  1.0
  C  C99  1  0.78098000  0.52110000  0.24513000  1.0
  C  C100  1  0.96042000  0.40626000  0.70918000  1.0
  C  C101  1  0.99464000  0.34584000  0.72405000  1.0
  C  C102  1  0.03456000  0.34650000  0.75655000  1.0
  C  C103  1  0.06624000  0.28458000  0.77115000  1.0
  C  C104  1  0.26072000  0.47138000  0.21760000  1.0
  C  C105  1  0.31418000  0.48928000  0.24709000  1.0
  C  C106  1  0.30386000  0.52946000  0.27884000  1.0
  C  C107  1  0.35718000  0.54302000  0.30931000  1.0
  C  C108  1  0.04314000  0.76854000  0.73503000  1.0
  C  C109  1  0.10056000  0.81376000  0.73122000  1.0
  C  C110  1  0.16090000  0.79602000  0.74272000  1.0
  C  C111  1  0.21594000  0.84440000  0.74208000  1.0
  C  C112  1  0.91342000  0.02872000  0.77246000  1.0
  C  C113  1  0.86014000  0.05342000  0.74485000  1.0
  C  C114  1  0.85634000  0.11722000  0.73500000  1.0
  C  C115  1  0.81536000  0.14018000  0.69957000  1.0
  C  C116  1  0.41750000  0.22084000  0.19943000  1.0
  C  C117  1  0.45408000  0.28424000  0.20401000  1.0
  C  C118  1  0.51736000  0.28524000  0.21442000  1.0
  C  C119  1  0.55454000  0.34830000  0.21845000  1.0
  C  C120  1  0.45338000  0.99892000  0.76562000  1.0
  C  C121  1  0.38636000  0.02852000  0.76231000  1.0
  C  C122  1  0.37218000  0.08576000  0.78003000  1.0
  C  C123  1  0.30460000  0.11406000  0.77654000  1.0
  C  C124  1  0.56318000  0.74150000  0.29862000  1.0
  C  C125  1  0.58166000  0.79512000  0.26964000  1.0
  C  C126  1  0.64058000  0.79544000  0.25186000  1.0
  C  C127  1  0.65788000  0.84572000  0.22019000  1.0
  C  C128  1  0.37156000  0.59580000  0.78439000  1.0
  C  C129  1  0.30280000  0.57780000  0.79597000  1.0
  C  C130  1  0.29162000  0.53336000  0.82530000  1.0
  C  C131  1  0.22428000  0.50764000  0.83457000  1.0
  C  C132  1  0.05404000  0.88036000  0.28896000  1.0
  C  C133  1  0.07658000  0.81636000  0.30641000  1.0
  C  C134  1  0.13646000  0.80940000  0.32232000  1.0
  C  C135  1  0.15644000  0.74538000  0.34109000  1.0
  C  C136  1  0.72922000  0.51876000  0.79247000  1.0
  C  C137  1  0.78872000  0.54508000  0.81380000  1.0
  C  C138  1  0.80146000  0.60946000  0.81643000  1.0
  C  C139  1  0.85382000  0.63360000  0.84496000  1.0
  C  C140  1  0.91200000  0.29076000  0.34108000  1.0
  C  C141  1  0.97144000  0.33180000  0.33295000  1.0
  C  C142  1  0.03114000  0.30752000  0.34059000  1.0
  C  C143  1  0.09218000  0.34736000  0.33583000  1.0
  Fe  Fe144  1  0.21280000  0.17600000  0.19729000  1.0
  Fe  Fe145  1  0.25412000  0.27888000  0.27033000  1.0
  Fe  Fe146  1  0.13152000  0.31308000  0.20954000  1.0
  Fe  Fe147  1  0.50340000  0.82576000  0.69898000  1.0
  Fe  Fe148  1  0.40886000  0.79872000  0.77842000  1.0
  Fe  Fe149  1  0.37082000  0.73660000  0.68889000  1.0
  Fe  Fe150  1  0.82790000  0.93482000  0.17006000  1.0
  Fe  Fe151  1  0.85528000  0.86150000  0.25767000  1.0
  Fe  Fe152  1  0.95094000  0.83228000  0.17918000  1.0
  Fe  Fe153  1  0.68702000  0.29742000  0.66842000  1.0
  Fe  Fe154  1  0.77678000  0.32860000  0.74955000  1.0
  Fe  Fe155  1  0.76472000  0.43714000  0.67597000  1.0
  Fe  Fe156  1  0.75062000  0.41970000  0.35726000  1.0
  Fe  Fe157  1  0.73658000  0.32600000  0.27596000  1.0
  Fe  Fe158  1  0.61740000  0.33392000  0.34275000  1.0
  Fe  Fe159  1  0.16572000  0.32080000  0.88241000  1.0
  Fe  Fe160  1  0.26584000  0.31152000  0.80387000  1.0
  Fe  Fe161  1  0.29506000  0.22562000  0.88672000  1.0
  Fe  Fe162  1  0.32826000  0.68098000  0.40394000  1.0
  Fe  Fe163  1  0.35838000  0.75084000  0.31548000  1.0
  Fe  Fe164  1  0.44064000  0.79536000  0.39708000  1.0
  Fe  Fe165  1  0.99290000  0.78478000  0.85904000  1.0
  Fe  Fe166  1  0.87142000  0.82890000  0.79968000  1.0
  Fe  Fe167  1  0.91036000  0.91856000  0.87893000  1.0
  H  H168  1  0.11808000  0.27712000  0.07723000  1.0
  H  H169  1  0.16896000  0.20530000  0.07432000  1.0
  H  H170  1  0.26342000  0.30870000  0.07619000  1.0
  H  H171  1  0.16424000  0.29022000  0.00691000  1.0
  H  H172  1  0.25302000  0.39276000  0.99829000  1.0
  H  H173  1  0.30996000  0.32572000  0.00583000  1.0
  H  H174  1  0.44432000  0.89190000  0.57967000  1.0
  H  H175  1  0.37616000  0.93054000  0.60303000  1.0
  H  H176  1  0.30686000  0.82496000  0.57992000  1.0
  H  H177  1  0.39946000  0.87450000  0.51328000  1.0
  H  H178  1  0.27552000  0.78484000  0.51379000  1.0
  H  H179  1  0.27514000  0.86124000  0.48774000  1.0
  H  H180  1  0.79346000  0.83018000  0.05731000  1.0
  H  H181  1  0.80664000  0.75276000  0.08077000  1.0
  H  H182  1  0.92474000  0.75124000  0.05664000  1.0
  H  H183  1  0.85882000  0.84696000  0.99744000  1.0
  H  H184  1  0.99508000  0.82932000  0.99653000  1.0
  H  H185  1  0.96926000  0.74662000  0.98650000  1.0
  H  H186  1  0.82810000  0.30554000  0.56001000  1.0
  H  H187  1  0.81282000  0.39134000  0.55084000  1.0
  H  H188  1  0.69742000  0.29472000  0.54196000  1.0
  H  H189  1  0.78428000  0.36436000  0.47939000  1.0
  H  H190  1  0.70712000  0.25638000  0.45700000  1.0
  H  H191  1  0.64396000  0.30980000  0.47451000  1.0
  H  H192  1  0.98282000  0.04098000  0.10323000  1.0
  H  H193  1  0.05288000  0.99044000  0.11509000  1.0
  H  H194  1  0.06594000  0.04036000  0.18254000  1.0
  H  H195  1  0.95254000  0.12566000  0.15227000  1.0
  H  H196  1  0.96450000  0.18168000  0.21625000  1.0
  H  H197  1  0.01120000  0.11502000  0.23597000  1.0
  H  H198  1  0.53638000  0.45864000  0.68156000  1.0
  H  H199  1  0.53346000  0.43306000  0.62921000  1.0
  H  H200  1  0.60348000  0.54100000  0.61324000  1.0
  H  H201  1  0.49506000  0.56594000  0.67587000  1.0
  H  H202  1  0.58504000  0.66160000  0.63150000  1.0
  H  H203  1  0.51136000  0.64382000  0.60394000  1.0
  H  H204  1  0.48528000  0.58002000  0.46688000  1.0
  H  H205  1  0.53984000  0.64726000  0.47691000  1.0
  H  H206  1  0.60044000  0.62966000  0.41419000  1.0
  H  H207  1  0.50022000  0.52018000  0.40090000  1.0
  H  H208  1  0.54778000  0.53848000  0.33113000  1.0
  H  H209  1  0.61958000  0.57562000  0.35259000  1.0
  H  H210  1  0.07294000  0.14298000  0.92657000  1.0
  H  H211  1  0.14386000  0.10842000  0.95088000  1.0
  H  H212  1  0.12770000  0.08110000  0.85879000  1.0
  H  H213  1  0.10630000  0.99728000  0.93534000  1.0
  H  H214  1  0.12348000  0.97020000  0.84188000  1.0
  H  H215  1  0.15462000  0.91882000  0.88175000  1.0
  H  H216  1  0.40748000  0.96338000  0.29967000  1.0
  H  H217  1  0.41108000  0.98792000  0.35269000  1.0
  H  H218  1  0.27462000  0.96168000  0.34069000  1.0
  H  H219  1  0.34780000  0.07298000  0.29775000  1.0
  H  H220  1  0.20160000  0.04272000  0.30303000  1.0
  H  H221  1  0.23194000  0.09844000  0.34161000  1.0
  H  H222  1  0.68720000  0.92464000  0.86295000  1.0
  H  H223  1  0.70386000  0.87790000  0.90814000  1.0
  H  H224  1  0.67688000  0.77438000  0.87284000  1.0
  H  H225  1  0.64144000  0.86954000  0.80393000  1.0
  H  H226  1  0.64852000  0.73940000  0.78304000  1.0
  H  H227  1  0.59464000  0.73054000  0.82656000  1.0
  H  H228  1  0.85456000  0.10592000  0.25154000  1.0
  H  H229  1  0.85454000  0.06070000  0.29901000  1.0
  H  H230  1  0.72608000  0.08408000  0.24991000  1.0
  H  H231  1  0.77360000  0.11864000  0.33618000  1.0
  H  H232  1  0.63858000  0.12088000  0.29219000  1.0
  H  H233  1  0.65202000  0.12188000  0.34647000  1.0
  H  H234  1  0.60984000  0.21338000  0.79858000  1.0
  H  H235  1  0.55404000  0.21870000  0.75575000  1.0
  H  H236  1  0.55508000  0.34918000  0.79059000  1.0
  H  H237  1  0.49670000  0.22840000  0.83240000  1.0
  H  H238  1  0.48102000  0.33406000  0.87920000  1.0
  H  H239  1  0.46356000  0.37700000  0.83209000  1.0
  H  H240  1  0.92614000  0.65640000  0.27289000  1.0
  H  H241  1  0.94578000  0.63694000  0.22036000  1.0
  H  H242  1  0.80780000  0.64036000  0.21706000  1.0
  H  H243  1  0.88006000  0.54194000  0.27143000  1.0
  H  H244  1  0.73668000  0.55224000  0.24723000  1.0
  H  H245  1  0.78492000  0.50144000  0.21362000  1.0
  H  H246  1  0.97086000  0.44840000  0.72953000  1.0
  H  H247  1  0.97848000  0.41852000  0.67816000  1.0
  H  H248  1  0.98694000  0.30062000  0.70735000  1.0
  H  H249  1  0.04138000  0.39136000  0.77377000  1.0
  H  H250  1  0.02888000  0.25410000  0.78665000  1.0
  H  H251  1  0.08594000  0.25758000  0.74442000  1.0
  H  H252  1  0.21918000  0.50614000  0.21957000  1.0
  H  H253  1  0.27972000  0.47514000  0.18598000  1.0
  H  H254  1  0.36190000  0.46716000  0.24273000  1.0
  H  H255  1  0.25532000  0.54910000  0.28423000  1.0
  H  H256  1  0.35828000  0.50332000  0.33238000  1.0
  H  H257  1  0.40514000  0.54382000  0.29346000  1.0
  H  H258  1  0.01318000  0.77166000  0.70686000  1.0
  H  H259  1  0.05976000  0.71716000  0.73828000  1.0
  H  H260  1  0.09162000  0.86302000  0.72028000  1.0
  H  H261  1  0.16914000  0.74778000  0.75558000  1.0
  H  H262  1  0.20956000  0.87856000  0.71600000  1.0
  H  H263  1  0.21496000  0.87242000  0.77110000  1.0
  H  H264  1  0.95674000  0.01842000  0.75315000  1.0
  H  H265  1  0.92658000  0.06698000  0.79511000  1.0
  H  H266  1  0.83020000  0.01808000  0.72866000  1.0
  H  H267  1  0.88980000  0.15166000  0.74912000  1.0
  H  H268  1  0.84712000  0.14192000  0.67217000  1.0
  H  H269  1  0.77566000  0.10474000  0.69287000  1.0
  H  H270  1  0.41928000  0.20486000  0.16708000  1.0
  H  H271  1  0.44080000  0.18170000  0.21787000  1.0
  H  H272  1  0.42910000  0.32976000  0.19713000  1.0
  H  H273  1  0.54332000  0.23948000  0.21893000  1.0
  H  H274  1  0.57954000  0.35936000  0.18920000  1.0
  H  H275  1  0.52044000  0.38888000  0.22566000  1.0
  H  H276  1  0.48750000  0.02492000  0.74490000  1.0
  H  H277  1  0.47136000  0.00428000  0.79744000  1.0
  H  H278  1  0.34924000  0.00400000  0.74416000  1.0
  H  H279  1  0.40984000  0.11168000  0.79691000  1.0
  H  H280  1  0.29326000  0.12434000  0.74400000  1.0
  H  H281  1  0.26894000  0.07740000  0.78783000  1.0
  H  H282  1  0.56074000  0.69470000  0.28154000  1.0
  H  H283  1  0.60110000  0.73790000  0.32279000  1.0
  H  H284  1  0.54626000  0.83278000  0.26197000  1.0
  H  H285  1  0.67434000  0.75566000  0.25795000  1.0
  H  H286  1  0.64428000  0.82666000  0.18965000  1.0
  H  H287  1  0.62934000  0.89130000  0.22474000  1.0
  H  H288  1  0.40464000  0.59134000  0.81117000  1.0
  H  H289  1  0.38786000  0.56096000  0.76052000  1.0
  H  H290  1  0.26248000  0.59584000  0.77759000  1.0
  H  H291  1  0.33224000  0.51468000  0.84320000  1.0
  H  H292  1  0.20656000  0.52918000  0.86361000  1.0
  H  H293  1  0.18900000  0.52190000  0.81039000  1.0
  H  H294  1  0.04266000  0.91454000  0.31429000  1.0
  H  H295  1  0.09358000  0.90122000  0.26975000  1.0
  H  H296  1  0.04270000  0.77546000  0.30756000  1.0
  H  H297  1  0.16930000  0.85106000  0.32336000  1.0
  H  H298  1  0.13054000  0.73866000  0.37058000  1.0
  H  H299  1  0.14120000  0.70462000  0.32084000  1.0
  H  H300  1  0.69470000  0.50052000  0.81596000  1.0
  H  H301  1  0.70500000  0.55800000  0.77459000  1.0
  H  H302  1  0.81912000  0.51060000  0.83038000  1.0
  H  H303  1  0.76902000  0.64438000  0.80189000  1.0
  H  H304  1  0.83206000  0.63714000  0.87591000  1.0
  H  H305  1  0.89448000  0.59772000  0.84676000  1.0
  H  H306  1  0.91686000  0.24308000  0.32515000  1.0
  H  H307  1  0.90940000  0.28154000  0.37445000  1.0
  H  H308  1  0.96602000  0.38194000  0.32261000  1.0
  H  H309  1  0.03618000  0.25744000  0.35110000  1.0
  H  H310  1  0.08006000  0.39984000  0.33164000  1.0
  H  H311  1  0.12164000  0.34196000  0.36406000  1.0
  O  O312  1  0.30746000  0.17932000  0.20162000  1.0
  O  O313  1  0.33064000  0.27402000  0.23705000  1.0
  O  O314  1  0.06776000  0.24752000  0.22118000  1.0
  O  O315  1  0.11970000  0.16128000  0.18924000  1.0
  O  O316  1  0.11674000  0.34816000  0.26390000  1.0
  O  O317  1  0.18022000  0.28512000  0.30610000  1.0
  O  O318  1  0.19976000  0.25570000  0.22568000  1.0
  O  O319  1  0.25084000  0.37208000  0.25806000  1.0
  O  O320  1  0.19350000  0.38048000  0.19771000  1.0
  O  O321  1  0.22118000  0.21998000  0.14575000  1.0
  O  O322  1  0.13302000  0.28806000  0.15230000  1.0
  O  O323  1  0.26650000  0.18968000  0.28968000  1.0
  O  O324  1  0.20528000  0.12566000  0.24637000  1.0
  O  O325  1  0.49944000  0.90336000  0.73327000  1.0
  O  O326  1  0.40646000  0.89146000  0.77227000  1.0
  O  O327  1  0.43958000  0.67744000  0.67492000  1.0
  O  O328  1  0.51890000  0.75426000  0.66106000  1.0
  O  O329  1  0.34650000  0.67670000  0.73266000  1.0
  O  O330  1  0.41076000  0.70650000  0.78723000  1.0
  O  O331  1  0.42792000  0.78700000  0.72208000  1.0
  O  O332  1  0.31468000  0.79876000  0.77058000  1.0
  O  O333  1  0.29988000  0.79440000  0.70097000  1.0
  O  O334  1  0.45208000  0.87210000  0.65955000  1.0
  O  O335  1  0.38602000  0.78720000  0.63949000  1.0
  O  O336  1  0.49978000  0.80100000  0.79548000  1.0
  O  O337  1  0.55912000  0.78154000  0.73698000  1.0
  O  O338  1  0.74608000  0.91350000  0.19707000  1.0
  O  O339  1  0.77076000  0.83034000  0.24188000  1.0
  O  O340  1  0.99102000  0.91332000  0.16491000  1.0
  O  O341  1  0.90134000  0.96564000  0.13791000  1.0
  O  O342  1  0.00178000  0.83488000  0.22935000  1.0
  O  O343  1  0.93886000  0.89224000  0.27553000  1.0
  O  O344  1  0.87802000  0.87596000  0.20216000  1.0
  O  O345  1  0.88564000  0.77140000  0.25874000  1.0
  O  O346  1  0.91570000  0.74828000  0.19265000  1.0
  O  O347  1  0.80856000  0.86818000  0.13093000  1.0
  O  O348  1  0.91152000  0.82340000  0.12533000  1.0
  O  O349  1  0.82182000  0.94934000  0.26654000  1.0
  O  O350  1  0.84512000  0.00488000  0.20731000  1.0
  O  O351  1  0.73018000  0.21800000  0.68658000  1.0
  O  O352  1  0.81656000  0.25158000  0.72663000  1.0
  O  O353  1  0.67456000  0.46178000  0.67561000  1.0
  O  O354  1  0.63448000  0.36800000  0.64594000  1.0
  O  O355  1  0.77228000  0.48028000  0.72849000  1.0
  O  O356  1  0.73812000  0.40386000  0.77521000  1.0
  O  O357  1  0.74304000  0.35402000  0.69799000  1.0
  O  O358  1  0.85948000  0.37396000  0.74169000  1.0
  O  O359  1  0.85566000  0.41542000  0.67619000  1.0
  O  O360  1  0.74490000  0.29810000  0.62229000  1.0
  O  O361  1  0.76092000  0.40904000  0.61928000  1.0
  O  O362  1  0.69966000  0.27916000  0.76533000  1.0
  O  O363  1  0.62616000  0.29322000  0.71275000  1.0
  O  O364  1  0.83502000  0.38078000  0.34418000  1.0
  O  O365  1  0.81070000  0.29158000  0.30410000  1.0
  O  O366  1  0.58788000  0.42254000  0.33989000  1.0
  O  O367  1  0.67380000  0.46812000  0.37521000  1.0
  O  O368  1  0.58300000  0.32160000  0.28803000  1.0
  O  O369  1  0.66394000  0.35804000  0.24510000  1.0
  O  O370  1  0.70178000  0.35978000  0.32527000  1.0
  O  O371  1  0.69588000  0.24080000  0.28272000  1.0
  O  O372  1  0.64482000  0.24446000  0.34552000  1.0
  O  O373  1  0.74714000  0.36222000  0.40368000  1.0
  O  O374  1  0.63704000  0.34172000  0.40065000  1.0
  O  O375  1  0.78228000  0.40614000  0.26174000  1.0
  O  O376  1  0.75542000  0.47964000  0.31232000  1.0
  O  O377  1  0.17470000  0.40650000  0.85692000  1.0
  O  O378  1  0.26962000  0.40136000  0.81917000  1.0
  O  O379  1  0.22352000  0.16620000  0.89184000  1.0
  O  O380  1  0.14490000  0.24048000  0.91150000  1.0
  O  O381  1  0.32160000  0.17732000  0.83829000  1.0
  O  O382  1  0.26306000  0.22296000  0.78560000  1.0
  O  O383  1  0.24222000  0.28626000  0.85775000  1.0
  O  O384  1  0.35924000  0.30682000  0.81429000  1.0
  O  O385  1  0.36908000  0.28246000  0.88275000  1.0
  O  O386  1  0.21430000  0.35394000  0.92801000  1.0
  O  O387  1  0.27698000  0.26272000  0.94024000  1.0
  O  O388  1  0.17654000  0.32040000  0.78456000  1.0
  O  O389  1  0.11228000  0.28894000  0.83877000  1.0
  O  O390  1  0.24780000  0.69294000  0.37326000  1.0
  O  O391  1  0.26912000  0.77340000  0.32575000  1.0
  O  O392  1  0.48768000  0.71974000  0.41470000  1.0
  O  O393  1  0.40142000  0.65916000  0.43921000  1.0
  O  O394  1  0.49672000  0.79586000  0.34917000  1.0
  O  O395  1  0.44664000  0.72736000  0.30310000  1.0
  O  O396  1  0.37534000  0.74272000  0.37235000  1.0
  O  O397  1  0.37880000  0.84386000  0.31346000  1.0
  O  O398  1  0.39732000  0.87396000  0.38014000  1.0
  O  O399  1  0.29850000  0.74744000  0.44064000  1.0
  O  O400  1  0.39556000  0.80262000  0.44921000  1.0
  O  O401  1  0.33568000  0.65942000  0.30746000  1.0
  O  O402  1  0.35596000  0.61082000  0.36940000  1.0
  O  O403  1  0.94390000  0.70832000  0.84152000  1.0
  O  O404  1  0.84254000  0.74664000  0.82193000  1.0
  O  O405  1  0.99670000  0.94986000  0.86795000  1.0
  O  O406  1  0.05176000  0.85284000  0.87832000  1.0
  O  O407  1  0.88006000  0.97228000  0.83368000  1.0
  O  O408  1  0.89972000  0.91072000  0.77639000  1.0
  O  O409  1  0.92502000  0.84378000  0.84597000  1.0
  O  O410  1  0.79474000  0.86922000  0.82406000  1.0
  O  O411  1  0.82336000  0.88952000  0.89075000  1.0
  O  O412  1  0.95834000  0.77068000  0.91262000  1.0
  O  O413  1  0.93918000  0.87780000  0.92959000  1.0
  O  O414  1  0.93892000  0.78582000  0.76775000  1.0
  O  O415  1  0.03208000  0.79484000  0.80643000  1.0
