# generated using pymatgen
data_Zn3H21C21N6O13
_symmetry_space_group_name_H-M   'P 1'
_cell_length_a   23.01320000
_cell_length_b   23.01320000
_cell_length_c   31.98330000
_cell_angle_alpha   90.00000000
_cell_angle_beta   90.00000000
_cell_angle_gamma   90.00000000
_symmetry_Int_Tables_number   1
_chemical_formula_structural   Zn3H21C21N6O13
_chemical_formula_sum   'Zn24 H168 C168 N48 O104'
_cell_volume   16938.59153253
_cell_formula_units_Z   8
loop_
 _symmetry_equiv_pos_site_id
 _symmetry_equiv_pos_as_xyz
  1  'x, y, z'
loop_
 _atom_site_type_symbol
 _atom_site_label
 _atom_site_symmetry_multiplicity
 _atom_site_fract_x
 _atom_site_fract_y
 _atom_site_fract_z
 _atom_site_occupancy
  C  C0  1  0.01810000  0.45768000  0.12902000  1.0
  C  C1  1  0.99528000  0.44266000  0.24327000  1.0
  C  C2  1  0.02110000  0.64528000  0.18973000  1.0
  C  C3  1  0.26956000  0.57818000  0.21479000  1.0
  C  C4  1  0.20106000  0.41000000  0.14697000  1.0
  C  C5  1  0.17476000  0.39154000  0.25849000  1.0
  C  C6  1  0.07840000  0.10592000  0.60139000  1.0
  C  C7  1  0.04466000  0.97592000  0.66259000  1.0
  C  C8  1  0.92402000  0.10642000  0.72905000  1.0
  C  C9  1  0.02830000  0.22368000  0.76000000  1.0
  C  C10  1  0.20608000  0.15114000  0.70780000  1.0
  C  C11  1  0.14818000  0.02188000  0.76147000  1.0
  C  C12  1  0.45238000  0.05546000  0.10378000  1.0
  C  C13  1  0.56894000  0.08374000  0.18066000  1.0
  C  C14  1  0.48882000  0.88810000  0.18738000  1.0
  C  C15  1  0.32226000  0.03056000  0.30643000  1.0
  C  C16  1  0.33008000  0.14960000  0.18541000  1.0
  C  C17  1  0.45298000  0.18024000  0.25792000  1.0
  C  C18  1  0.54352000  0.45134000  0.60456000  1.0
  C  C19  1  0.51058000  0.58660000  0.66235000  1.0
  C  C20  1  0.64844000  0.46226000  0.73179000  1.0
  C  C21  1  0.48210000  0.34894000  0.76881000  1.0
  C  C22  1  0.37384000  0.38140000  0.64423000  1.0
  C  C23  1  0.34580000  0.51628000  0.70146000  1.0
  C  C24  1  0.52974000  0.57214000  0.41005000  1.0
  C  C25  1  0.49412000  0.66808000  0.32232000  1.0
  C  C26  1  0.49150000  0.47642000  0.27325000  1.0
  C  C27  1  0.75284000  0.55138000  0.24892000  1.0
  C  C28  1  0.72106000  0.63754000  0.38549000  1.0
  C  C29  1  0.65750000  0.71778000  0.29996000  1.0
  C  C30  1  0.02700000  0.59808000  0.94225000  1.0
  C  C31  1  0.05712000  0.48254000  0.86445000  1.0
  C  C32  1  0.19816000  0.63430000  0.85347000  1.0
  C  C33  1  0.04908000  0.74844000  0.80054000  1.0
  C  C34  1  0.88580000  0.66140000  0.86132000  1.0
  C  C35  1  0.92368000  0.55144000  0.78354000  1.0
  C  C36  1  0.05252000  0.96472000  0.41221000  1.0
  C  C37  1  0.07520000  0.93934000  0.29857000  1.0
  C  C38  1  0.05110000  0.14202000  0.33563000  1.0
  C  C39  1  0.79036000  0.05618000  0.31343000  1.0
  C  C40  1  0.87310000  0.89766000  0.39625000  1.0
  C  C41  1  0.89812000  0.88454000  0.28437000  1.0
  C  C42  1  0.59248000  0.05958000  0.91263000  1.0
  C  C43  1  0.57896000  0.08164000  0.79716000  1.0
  C  C44  1  0.41418000  0.97994000  0.85181000  1.0
  C  C45  1  0.53858000  0.82952000  0.78637000  1.0
  C  C46  1  0.71834000  0.91174000  0.87892000  1.0
  C  C47  1  0.69842000  0.95466000  0.77103000  1.0
  C  C48  1  0.44794000  0.71068000  0.31052000  1.0
  C  C49  1  0.28820000  0.64014000  0.21878000  1.0
  C  C50  1  0.31122000  0.63494000  0.29556000  1.0
  C  C51  1  0.35522000  0.65504000  0.32100000  1.0
  C  C52  1  0.37602000  0.67620000  0.25710000  1.0
  C  C53  1  0.07398000  0.41970000  0.86435000  1.0
  C  C54  1  0.98342000  0.25932000  0.78211000  1.0
  C  C55  1  0.01552000  0.36168000  0.76716000  1.0
  C  C56  1  0.04016000  0.40630000  0.78983000  1.0
  C  C57  1  0.02664000  0.33331667  0.83083000  1.0
  C  C58  1  0.30458000  0.98298000  0.33565000  1.0
  C  C59  1  0.11986000  0.91782000  0.26836000  1.0
  C  C60  1  0.21310000  0.87052000  0.29075000  1.0
  C  C61  1  0.26464000  0.88874000  0.30837000  1.0
  C  C62  1  0.20712000  0.96228000  0.30334000  1.0
  C  C63  1  0.49908000  0.31988000  0.80896000  1.0
  C  C64  1  0.57498000  0.12684000  0.76373000  1.0
  C  C65  1  0.61730000  0.21668000  0.79629000  1.0
  C  C66  1  0.59644000  0.27036000  0.80829000  1.0
  C  C67  1  0.52482000  0.21876000  0.78580000  1.0
  C  C68  1  0.76900000  0.50878000  0.21555000  1.0
  C  C69  1  0.95072000  0.42192000  0.27382000  1.0
  C  C70  1  0.85616000  0.38402000  0.24562000  1.0
  C  C71  1  0.80554000  0.40808000  0.23036000  1.0
  C  C72  1  0.86408000  0.47728000  0.24715000  1.0
  C  C73  1  0.03234000  0.91288000  0.65602000  1.0
  C  C74  1  0.08678000  0.79276000  0.77969000  1.0
  C  C75  1  0.00190000  0.85608000  0.75967000  1.0
  C  C76  1  0.98718000  0.88962000  0.72557000  1.0
  C  C77  1  0.06878000  0.84716000  0.71298000  1.0
  C  C78  1  0.63216000  0.09860000  0.18325000  1.0
  C  C79  1  0.76434000  0.11498000  0.30625000  1.0
  C  C80  1  0.65632000  0.11760000  0.29519000  1.0
  C  C81  1  0.61942000  0.11310000  0.26143000  1.0
  C  C82  1  0.70740000  0.10280000  0.23975000  1.0
  C  C83  1  0.51992000  0.65038000  0.65604000  1.0
  C  C84  1  0.49928000  0.77808000  0.78155000  1.0
  C  C85  1  0.57636000  0.71182000  0.75256000  1.0
  C  C86  1  0.58188000  0.67626000  0.71813000  1.0
  C  C87  1  0.49740000  0.71650000  0.71654000  1.0
  C  C88  1  0.89036000  0.51406000  0.75370000  1.0
  C  C89  1  0.68564000  0.44536000  0.76825000  1.0
  C  C90  1  0.73878000  0.53904000  0.78109000  1.0
  C  C91  1  0.79520000  0.55832000  0.77696000  1.0
  C  C92  1  0.79212000  0.46764000  0.76046000  1.0
  C  C93  1  0.03154000  0.70856000  0.19735000  1.0
  C  C94  1  0.87868000  0.84250000  0.25146000  1.0
  C  C95  1  0.92350000  0.74852000  0.27519000  1.0
  C  C96  1  0.96574000  0.71146000  0.26031000  1.0
  C  C97  1  0.95642000  0.78268000  0.21710000  1.0
  C  C98  1  0.86886000  0.13074000  0.74655000  1.0
  C  C99  1  0.73712000  0.95898000  0.73353000  1.0
  C  C100  1  0.73594000  0.06282000  0.70928000  1.0
  C  C101  1  0.77240000  0.11014000  0.71275000  1.0
  C  C102  1  0.81160000  0.03748000  0.74450000  1.0
  C  C103  1  0.48288000  0.83064000  0.20861000  1.0
  C  C104  1  0.66658000  0.77656000  0.28138000  1.0
  C  C105  1  0.57774000  0.83488000  0.29925000  1.0
  C  C106  1  0.52658000  0.84912000  0.27933000  1.0
  C  C107  1  0.57904000  0.79800000  0.23732000  1.0
  C  C108  1  0.29446000  0.55468000  0.70927000  1.0
  C  C109  1  0.24476000  0.67198000  0.83525000  1.0
  C  C110  1  0.33586000  0.64832000  0.79587000  1.0
  C  C111  1  0.34996000  0.61656000  0.76076000  1.0
  C  C112  1  0.25902000  0.60466000  0.77394000  1.0
  C  C113  1  0.19544000  0.35048000  0.29167000  1.0
  C  C114  1  0.04186000  0.20502000  0.32578000  1.0
  C  C115  1  0.12492000  0.21130000  0.27458000  1.0
  C  C116  1  0.16718000  0.25170000  0.26508000  1.0
  C  C117  1  0.11642000  0.28368000  0.31682000  1.0
  C  C118  1  0.36102000  0.94266000  0.85457000  1.0
  C  C119  1  0.16820000  0.97232000  0.78809000  1.0
  C  C120  1  0.27210000  0.97240000  0.76327000  1.0
  C  C121  1  0.32558000  0.96392000  0.78172000  1.0
  C  C122  1  0.26012000  0.96504000  0.82977000  1.0
  C  C123  1  0.49076000  0.43156000  0.23929000  1.0
  C  C124  1  0.47958000  0.22502000  0.28599000  1.0
  C  C125  1  0.40876000  0.30732000  0.27744000  1.0
  C  C126  1  0.41202000  0.36478000  0.26532000  1.0
  C  C127  1  0.49722000  0.32662000  0.26033000  1.0
  C  C128  1  0.23826000  0.37786000  0.11655000  1.0
  C  C129  1  0.27672000  0.17758000  0.16776000  1.0
  C  C130  1  0.31620000  0.27756000  0.18376000  1.0
  C  C131  1  0.30526000  0.33296000  0.16949000  1.0
  C  C132  1  0.25404000  0.27254000  0.13362000  1.0
  C  C133  1  0.26530000  0.17814000  0.70668000  1.0
  C  C134  1  0.34006000  0.33938000  0.61794000  1.0
  C  C135  1  0.24946000  0.32142000  0.65994000  1.0
  C  C136  1  0.22814000  0.27656000  0.68412000  1.0
  C  C137  1  0.30998000  0.25012000  0.65765000  1.0
  C  C138  1  0.83890000  0.86166000  0.42661000  1.0
  C  C139  1  0.77024000  0.65618000  0.41302000  1.0
  C  C140  1  0.79368000  0.73800000  0.36321000  1.0
  C  C141  1  0.81236000  0.79452000  0.36678000  1.0
  C  C142  1  0.80508000  0.75782000  0.42846000  1.0
  C  C143  1  0.76976000  0.89086000  0.90347000  1.0
  C  C144  1  0.82866000  0.68640000  0.87525000  1.0
  C  C145  1  0.83170000  0.78094000  0.83516000  1.0
  C  C146  1  0.81496000  0.83738000  0.84302000  1.0
  C  C147  1  0.80304000  0.78688000  0.89901000  1.0
  C  C148  1  0.02470000  0.60642000  0.98858000  1.0
  C  C149  1  0.98606000  0.44572000  0.08932000  1.0
  C  C150  1  0.06140000  0.46678000  0.03459000  1.0
  C  C151  1  0.07210000  0.51110000  0.00661000  1.0
  C  C152  1  0.99306000  0.53032000  0.03995000  1.0
  C  C153  1  0.08632000  0.12034000  0.55613000  1.0
  C  C154  1  0.08508000  0.95786000  0.45241000  1.0
  C  C155  1  0.01124000  0.00654000  0.49858000  1.0
  C  C156  1  0.01166000  0.05102000  0.52748000  1.0
  C  C157  1  0.09820000  0.04070000  0.50291000  1.0
  C  C158  1  0.59416000  0.09684000  0.95102000  1.0
  C  C159  1  0.44224000  0.05154000  0.05760000  1.0
  C  C160  1  0.54094000  0.01192000  0.03888000  1.0
  C  C161  1  0.58216000  0.02352000  0.00867000  1.0
  C  C162  1  0.51178000  0.08452000  0.00194000  1.0
  C  C163  1  0.49810000  0.55930000  0.44994000  1.0
  C  C164  1  0.57156000  0.43258000  0.56456000  1.0
  C  C165  1  0.60300000  0.52650000  0.53148000  1.0
  C  C166  1  0.58334000  0.56118000  0.49926000  1.0
  C  C167  1  0.52870000  0.48542000  0.50314000  1.0
  H  H168  1  0.24966000  0.66908000  0.22135000  1.0
  H  H169  1  0.27164000  0.61366000  0.30557000  1.0
  H  H170  1  0.35710000  0.65220000  0.35476000  1.0
  H  H171  1  0.39796000  0.69438000  0.23010000  1.0
  H  H172  1  0.43804000  0.73868000  0.33793000  1.0
  H  H173  1  0.46510000  0.73852000  0.28503000  1.0
  H  H174  1  0.31308000  0.65216000  0.19026000  1.0
  H  H175  1  0.96842000  0.23644000  0.81079000  1.0
  H  H176  1  0.00516000  0.36214000  0.73415000  1.0
  H  H177  1  0.05314000  0.44836000  0.77788000  1.0
  H  H178  1  0.02706000  0.30592000  0.85841000  1.0
  H  H179  1  0.12192000  0.41572000  0.86123000  1.0
  H  H180  1  0.06074000  0.39974000  0.89454000  1.0
  H  H181  1  0.94554000  0.26556000  0.76103000  1.0
  H  H182  1  0.12150000  0.94724000  0.24084000  1.0
  H  H183  1  0.20284000  0.82692000  0.28039000  1.0
  H  H184  1  0.30226000  0.86204000  0.31496000  1.0
  H  H185  1  0.19052000  0.00630000  0.30499000  1.0
  H  H186  1  0.34332000  0.95652000  0.34399000  1.0
  H  H187  1  0.28570000  0.00266000  0.36433000  1.0
  H  H188  1  0.10784000  0.87342000  0.25765000  1.0
  H  H189  1  0.53568000  0.11906000  0.74428000  1.0
  H  H190  1  0.66212000  0.20240000  0.79708000  1.0
  H  H191  1  0.62170000  0.30622000  0.82052000  1.0
  H  H192  1  0.48140000  0.20600000  0.77640000  1.0
  H  H193  1  0.51974000  0.35272000  0.82966000  1.0
  H  H194  1  0.45896000  0.30406000  0.82462000  1.0
  H  H195  1  0.61396000  0.12406000  0.74329000  1.0
  H  H196  1  0.95320000  0.44894000  0.30255000  1.0
  H  H197  1  0.86576000  0.33816000  0.24866000  1.0
  H  H198  1  0.76810000  0.38466000  0.21870000  1.0
  H  H199  1  0.88202000  0.52038000  0.25152000  1.0
  H  H200  1  0.72940000  0.48620000  0.20398000  1.0
  H  H201  1  0.78974000  0.53288000  0.18940000  1.0
  H  H202  1  0.95934000  0.37586000  0.28237000  1.0
  H  H203  1  0.12088000  0.76948000  0.76164000  1.0
  H  H204  1  0.97776000  0.85238000  0.78860000  1.0
  H  H205  1  0.94914000  0.91696000  0.72250000  1.0
  H  H206  1  0.10888000  0.83464000  0.69765000  1.0
  H  H207  1  0.98966000  0.90846000  0.64007000  1.0
  H  H208  1  0.06730000  0.89320000  0.63663000  1.0
  H  H209  1  0.10810000  0.82092000  0.80338000  1.0
  H  H210  1  0.79652000  0.14350000  0.29043000  1.0
  H  H211  1  0.64402000  0.12572000  0.32733000  1.0
  H  H212  1  0.57260000  0.11724000  0.26231000  1.0
  H  H213  1  0.74446000  0.09706000  0.21926000  1.0
  H  H214  1  0.65818000  0.06452000  0.16724000  1.0
  H  H215  1  0.64038000  0.14068000  0.16728000  1.0
  H  H216  1  0.75490000  0.13506000  0.33711000  1.0
  H  H217  1  0.45596000  0.79324000  0.77069000  1.0
  H  H218  1  0.60864000  0.71890000  0.77665000  1.0
  H  H219  1  0.61948000  0.65046000  0.70985000  1.0
  H  H220  1  0.45406000  0.72862000  0.70645000  1.0
  H  H221  1  0.48122000  0.67006000  0.64075000  1.0
  H  H222  1  0.55820000  0.65556000  0.63520000  1.0
  H  H223  1  0.49424000  0.75546000  0.81204000  1.0
  H  H224  1  0.69864000  0.39914000  0.76453000  1.0
  H  H225  1  0.70146000  0.56482000  0.79004000  1.0
  H  H226  1  0.81052000  0.60224000  0.78210000  1.0
  H  H227  1  0.80514000  0.42496000  0.74958000  1.0
  H  H228  1  0.89532000  0.53110000  0.72139000  1.0
  H  H229  1  0.90794000  0.46908000  0.75478000  1.0
  H  H230  1  0.66022000  0.44864000  0.79771000  1.0
  H  H231  1  0.87514000  0.86558000  0.22104000  1.0
  H  H232  1  0.89900000  0.74366000  0.30385000  1.0
  H  H233  1  0.98078000  0.67192000  0.27510000  1.0
  H  H234  1  0.96296000  0.81094000  0.19041000  1.0
  H  H235  1  0.07408000  0.71448000  0.21327000  1.0
  H  H236  1  0.03256000  0.73172000  0.16685000  1.0
  H  H237  1  0.83430000  0.82698000  0.25930000  1.0
  H  H238  1  0.71238000  0.94652000  0.70507000  1.0
  H  H239  1  0.69412000  0.06168000  0.69381000  1.0
  H  H240  1  0.76466000  0.15326000  0.70048000  1.0
  H  H241  1  0.84170000  0.01160000  0.76276000  1.0
  H  H242  1  0.87218000  0.13120000  0.78121000  1.0
  H  H243  1  0.86220000  0.17572000  0.73474000  1.0
  H  H244  1  0.77294000  0.92692000  0.73689000  1.0
  H  H245  1  0.69264000  0.77346000  0.25219000  1.0
  H  H246  1  0.58996000  0.84626000  0.33089000  1.0
  H  H247  1  0.49106000  0.87432000  0.29214000  1.0
  H  H248  1  0.59308000  0.77422000  0.20987000  1.0
  H  H249  1  0.43940000  0.82824000  0.22370000  1.0
  H  H250  1  0.48794000  0.79516000  0.18529000  1.0
  H  H251  1  0.69072000  0.80394000  0.30415000  1.0
  H  H252  1  0.22520000  0.71082000  0.82011000  1.0
  H  H253  1  0.36452000  0.67696000  0.81305000  1.0
  H  H254  1  0.39184000  0.61544000  0.74533000  1.0
  H  H255  1  0.21384000  0.59224000  0.77028000  1.0
  H  H256  1  0.28846000  0.58484000  0.68248000  1.0
  H  H257  1  0.25488000  0.52722000  0.71195000  1.0
  H  H258  1  0.27378000  0.68638000  0.86103000  1.0
  H  H259  1  0.03080000  0.22768000  0.35542000  1.0
  H  H260  1  0.11696000  0.17082000  0.25831000  1.0
  H  H261  1  0.19880000  0.24902000  0.24011000  1.0
  H  H262  1  0.09972000  0.31216000  0.34098000  1.0
  H  H263  1  0.24192000  0.34048000  0.28547000  1.0
  H  H264  1  0.19252000  0.37248000  0.32254000  1.0
  H  H265  1  0.00450000  0.21028000  0.30408000  1.0
  H  H266  1  0.15618000  0.93070000  0.77273000  1.0
  H  H267  1  0.26350000  0.97468000  0.73005000  1.0
  H  H268  1  0.36670000  0.95860000  0.76574000  1.0
  H  H269  1  0.23922000  0.95992000  0.85993000  1.0
  H  H270  1  0.37324000  0.89648000  0.84942000  1.0
  H  H271  1  0.34230000  0.94684000  0.88646000  1.0
  H  H272  1  0.14636000  0.97458000  0.81908000  1.0
  H  H273  1  0.52764000  0.22102000  0.28377000  1.0
  H  H274  1  0.37040000  0.28464000  0.28826000  1.0
  H  H275  1  0.37650000  0.39556000  0.26419000  1.0
  H  H276  1  0.54340000  0.32172000  0.25474000  1.0
  H  H277  1  0.46174000  0.44744000  0.21397000  1.0
  H  H278  1  0.53540000  0.42518000  0.22678000  1.0
  H  H279  1  0.46682000  0.21706000  0.31902000  1.0
  H  H280  1  0.23916000  0.17078000  0.18903000  1.0
  H  H281  1  0.34376000  0.26586000  0.20978000  1.0
  H  H282  1  0.32278000  0.37296000  0.18212000  1.0
  H  H283  1  0.22196000  0.25544000  0.11209000  1.0
  H  H284  1  0.21088000  0.36128000  0.09051000  1.0
  H  H285  1  0.27232000  0.40756000  0.10430000  1.0
  H  H286  1  0.26688000  0.15616000  0.13743000  1.0
  H  H287  1  0.37122000  0.31066000  0.60128000  1.0
  H  H288  1  0.22996000  0.36380000  0.65567000  1.0
  H  H289  1  0.18884000  0.27744000  0.70271000  1.0
  H  H290  1  0.34890000  0.22510000  0.65133000  1.0
  H  H291  1  0.27844000  0.18898000  0.73919000  1.0
  H  H292  1  0.29720000  0.14676000  0.69355000  1.0
  H  H293  1  0.31514000  0.36334000  0.59368000  1.0
  H  H294  1  0.80790000  0.62654000  0.40886000  1.0
  H  H295  1  0.78446000  0.71536000  0.33431000  1.0
  H  H296  1  0.81956000  0.82440000  0.34122000  1.0
  H  H297  1  0.80616000  0.75332000  0.46219000  1.0
  H  H298  1  0.86604000  0.85222000  0.45454000  1.0
  H  H299  1  0.79978000  0.88596000  0.43703000  1.0
  H  H300  1  0.75568000  0.65516000  0.44616000  1.0
  H  H301  1  0.82088000  0.67366000  0.90833000  1.0
  H  H302  1  0.84484000  0.76368000  0.80514000  1.0
  H  H303  1  0.81360000  0.87268000  0.82066000  1.0
  H  H304  1  0.78944000  0.77444000  0.93022000  1.0
  H  H305  1  0.80216000  0.92650000  0.90593000  1.0
  H  H306  1  0.75514000  0.87898000  0.93546000  1.0
  H  H307  1  0.79354000  0.66612000  0.85640000  1.0
  H  H308  1  0.93988000  0.45876000  0.09335000  1.0
  H  H309  1  0.08848000  0.42908000  0.04015000  1.0
  H  H310  1  0.10918000  0.51486000  0.98596000  1.0
  H  H311  1  0.95484000  0.55308000  0.05111000  1.0
  H  H312  1  0.06172000  0.63418000  0.99854000  1.0
  H  H313  1  0.98316000  0.62812000  0.99701000  1.0
  H  H314  1  0.98760000  0.39860000  0.08172000  1.0
  H  H315  1  0.13208000  0.96440000  0.44593000  1.0
  H  H316  1  0.97412000  0.98058000  0.48944000  1.0
  H  H317  1  0.97482000  0.06686000  0.54515000  1.0
  H  H318  1  0.14426000  0.04704000  0.49752000  1.0
  H  H319  1  0.05956000  0.15922000  0.54874000  1.0
  H  H320  1  0.13288000  0.12964000  0.54966000  1.0
  H  H321  1  0.07898000  0.91338000  0.46521000  1.0
  H  H322  1  0.41580000  0.08940000  0.04737000  1.0
  H  H323  1  0.54244000  0.97730000  0.06177000  1.0
  H  H324  1  0.62254000  0.00040000  0.00375000  1.0
  H  H325  1  0.48504000  0.11954000  0.98998000  1.0
  H  H326  1  0.64012000  0.10474000  0.96006000  1.0
  H  H327  1  0.57316000  0.13906000  0.94353000  1.0
  H  H328  1  0.41808000  0.01096000  0.05036000  1.0
  H  H329  1  0.54820000  0.39378000  0.55250000  1.0
  H  H330  1  0.63864000  0.53588000  0.55249000  1.0
  H  H331  1  0.60034000  0.60330000  0.49049000  1.0
  H  H332  1  0.49310000  0.45548000  0.49775000  1.0
  H  H333  1  0.48050000  0.60092000  0.46220000  1.0
  H  H334  1  0.46148000  0.52894000  0.44381000  1.0
  H  H335  1  0.61768000  0.42036000  0.57009000  1.0
  N  N336  1  0.32486000  0.64790000  0.25560000  1.0
  N  N337  1  0.39550000  0.68076000  0.29665000  1.0
  N  N338  1  0.00710000  0.31620000  0.79307000  1.0
  N  N339  1  0.04642000  0.38842000  0.82981000  1.0
  N  N340  1  0.17724000  0.91666000  0.28789000  1.0
  N  N341  1  0.26064000  0.94620000  0.31602000  1.0
  N  N342  1  0.57226000  0.18484000  0.78208000  1.0
  N  N343  1  0.53864000  0.27132000  0.80151000  1.0
  N  N344  1  0.89250000  0.42754000  0.25608000  1.0
  N  N345  1  0.81070000  0.46638000  0.23158000  1.0
  N  N346  1  0.05258000  0.82892000  0.75129000  1.0
  N  N347  1  0.02930000  0.88384000  0.69655000  1.0
  N  N348  1  0.71122000  0.11142000  0.28134000  1.0
  N  N349  1  0.65164000  0.10344000  0.22675000  1.0
  N  N350  1  0.52360000  0.73738000  0.75113000  1.0
  N  N351  1  0.53214000  0.67912000  0.69586000  1.0
  N  N352  1  0.73724000  0.48226000  0.77075000  1.0
  N  N353  1  0.82852000  0.51320000  0.76443000  1.0
  N  N354  1  0.91800000  0.79292000  0.24800000  1.0
  N  N355  1  0.98570000  0.73284000  0.22372000  1.0
  N  N356  1  0.76106000  0.01744000  0.72886000  1.0
  N  N357  1  0.81980000  0.09390000  0.73463000  1.0
  N  N358  1  0.61046000  0.80342000  0.27260000  1.0
  N  N359  1  0.52770000  0.82582000  0.24064000  1.0
  N  N360  1  0.27902000  0.64010000  0.80430000  1.0
  N  N361  1  0.30172000  0.58874000  0.74749000  1.0
  N  N362  1  0.09390000  0.23120000  0.30739000  1.0
  N  N363  1  0.16142000  0.29686000  0.29160000  1.0
  N  N364  1  0.23130000  0.97360000  0.79360000  1.0
  N  N365  1  0.31776000  0.95972000  0.82341000  1.0
  N  N366  1  0.46214000  0.28368000  0.27387000  1.0
  N  N367  1  0.46762000  0.37662000  0.25503000  1.0
  N  N368  1  0.28484000  0.23984000  0.16065000  1.0
  N  N369  1  0.26620000  0.32946000  0.13818000  1.0
  N  N370  1  0.30060000  0.30438000  0.64342000  1.0
  N  N371  1  0.26596000  0.23178000  0.68217000  1.0
  N  N372  1  0.78810000  0.71542000  0.40199000  1.0
  N  N373  1  0.82022000  0.80662000  0.40774000  1.0
  N  N374  1  0.82532000  0.74966000  0.87064000  1.0
  N  N375  1  0.79648000  0.84064000  0.88298000  1.0
  N  N376  1  0.01174000  0.47900000  0.05513000  1.0
  N  N377  1  0.02890000  0.55050000  0.00996000  1.0
  N  N378  1  0.06544000  0.00064000  0.48313000  1.0
  N  N379  1  0.06630000  0.07196000  0.53021000  1.0
  N  N380  1  0.49730000  0.05068000  0.03477000  1.0
  N  N381  1  0.56344000  0.06882000  0.98560000  1.0
  N  N382  1  0.56868000  0.47908000  0.53355000  1.0
  N  N383  1  0.53714000  0.53494000  0.48142000  1.0
  O  O384  1  0.13224000  0.37576000  0.23309000  1.0
  O  O385  1  0.20066000  0.44240000  0.25476000  1.0
  O  O386  1  0.01712000  0.51062000  0.14481000  1.0
  O  O387  1  0.04656000  0.41488000  0.14743000  1.0
  O  O388  1  0.03052000  0.40460000  0.22550000  1.0
  O  O389  1  0.99936000  0.49878000  0.23561000  1.0
  O  O390  1  0.21450000  0.56472000  0.21916000  1.0
  O  O391  1  0.30758000  0.53788000  0.20491000  1.0
  O  O392  1  0.11356000  0.49212000  0.20057000  1.0
  O  O393  1  0.05884000  0.60688000  0.20327000  1.0
  O  O394  1  0.97398000  0.62810000  0.17012000  1.0
  O  O395  1  0.22232000  0.45664000  0.16533000  1.0
  O  O396  1  0.14980000  0.38834000  0.15720000  1.0
  O  O397  1  0.15594000  0.01904000  0.72059000  1.0
  O  O398  1  0.12112000  0.06604000  0.77904000  1.0
  O  O399  1  0.02696000  0.11408000  0.61871000  1.0
  O  O400  1  0.12280000  0.08458000  0.62276000  1.0
  O  O401  1  0.09896000  0.99428000  0.66251000  1.0
  O  O402  1  0.00104000  0.01160000  0.66949000  1.0
  O  O403  1  0.04994000  0.17708000  0.77793000  1.0
  O  O404  1  0.04358000  0.23694000  0.72159000  1.0
  O  O405  1  0.07018000  0.10630000  0.70246000  1.0
  O  O406  1  0.94358000  0.12414000  0.69262000  1.0
  O  O407  1  0.95256000  0.06626000  0.74982000  1.0
  O  O408  1  0.16890000  0.16836000  0.73669000  1.0
  O  O409  1  0.19430000  0.10732000  0.68243000  1.0
  O  O410  1  0.46448000  0.18114000  0.21743000  1.0
  O  O411  1  0.42246000  0.13796000  0.27487000  1.0
  O  O412  1  0.45952000  0.00720000  0.12537000  1.0
  O  O413  1  0.45136000  0.10692000  0.12217000  1.0
  O  O414  1  0.53086000  0.12582000  0.17442000  1.0
  O  O415  1  0.55260000  0.02954000  0.18657000  1.0
  O  O416  1  0.36280000  0.02136000  0.27829000  1.0
  O  O417  1  0.29842000  0.08224000  0.30966000  1.0
  O  O418  1  0.43418000  0.05826000  0.20584000  1.0
  O  O419  1  0.46588000  0.93458000  0.20449000  1.0
  O  O420  1  0.52024000  0.89290000  0.15326000  1.0
  O  O421  1  0.32452000  0.11500000  0.21797000  1.0
  O  O422  1  0.38104000  0.15882000  0.16747000  1.0
  O  O423  1  0.37404000  0.52122000  0.66571000  1.0
  O  O424  1  0.36090000  0.47758000  0.72983000  1.0
  O  O425  1  0.57394000  0.44952000  0.63943000  1.0
  O  O426  1  0.48862000  0.46822000  0.60424000  1.0
  O  O427  1  0.46652000  0.56088000  0.64349000  1.0
  O  O428  1  0.54786000  0.55692000  0.68514000  1.0
  O  O429  1  0.43924000  0.38662000  0.76876000  1.0
  O  O430  1  0.50976000  0.33750000  0.73379000  1.0
  O  O431  1  0.47458000  0.45568000  0.69450000  1.0
  O  O432  1  0.59204000  0.45392000  0.73328000  1.0
  O  O433  1  0.67186000  0.48566000  0.69829000  1.0
  O  O434  1  0.38380000  0.36960000  0.68394000  1.0
  O  O435  1  0.39348000  0.42950000  0.62669000  1.0
  O  O436  1  0.62858000  0.71316000  0.33542000  1.0
  O  O437  1  0.67924000  0.67194000  0.28108000  1.0
  O  O438  1  0.51882000  0.53992000  0.37677000  1.0
  O  O439  1  0.56324000  0.61880000  0.40801000  1.0
  O  O440  1  0.53434000  0.68424000  0.34923000  1.0
  O  O441  1  0.49486000  0.61610000  0.30516000  1.0
  O  O442  1  0.70436000  0.54474000  0.27007000  1.0
  O  O443  1  0.78506000  0.59772000  0.25512000  1.0
  O  O444  1  0.61314000  0.58756000  0.32814000  1.0
  O  O445  1  0.54128000  0.49614000  0.28762000  1.0
  O  O446  1  0.44262000  0.50036000  0.28565000  1.0
  O  O447  1  0.73316000  0.61004000  0.35032000  1.0
  O  O448  1  0.66806000  0.65596000  0.39420000  1.0
  O  O449  1  0.92756000  0.53534000  0.82313000  1.0
  O  O450  1  0.94678000  0.60040000  0.76996000  1.0
  O  O451  1  0.07462000  0.61292000  0.92193000  1.0
  O  O452  1  0.98104000  0.57680000  0.92271000  1.0
  O  O453  1  0.00210000  0.49690000  0.87029000  1.0
  O  O454  1  0.09782000  0.52222000  0.85933000  1.0
  O  O455  1  0.02282000  0.70826000  0.77828000  1.0
  O  O456  1  0.04244000  0.74938000  0.84132000  1.0
  O  O457  1  0.01906000  0.61646000  0.84199000  1.0
  O  O458  1  0.14348000  0.64446000  0.84430000  1.0
  O  O459  1  0.21182000  0.59140000  0.87872000  1.0
  O  O460  1  0.91676000  0.68804000  0.83243000  1.0
  O  O461  1  0.90152000  0.61016000  0.87617000  1.0
  O  O462  1  0.94212000  0.87146000  0.30928000  1.0
  O  O463  1  0.86860000  0.93310000  0.28894000  1.0
  O  O464  1  0.05208000  0.01582000  0.39359000  1.0
  O  O465  1  0.02536000  0.91930000  0.39610000  1.0
  O  O466  1  0.04238000  0.90150000  0.31868000  1.0
  O  O467  1  0.06818000  0.99574000  0.30336000  1.0
  O  O468  1  0.84514000  0.05220000  0.32457000  1.0
  O  O469  1  0.75878000  0.00888000  0.30974000  1.0
  O  O470  1  0.95412000  0.98856000  0.34113000  1.0
  O  O471  1  0.00796000  0.10508000  0.33136000  1.0
  O  O472  1  0.10174000  0.12368000  0.34928000  1.0
  O  O473  1  0.84836000  0.94328000  0.37871000  1.0
  O  O474  1  0.92580000  0.88046000  0.38559000  1.0
  O  O475  1  0.69990000  0.99568000  0.79988000  1.0
  O  O476  1  0.66478000  0.90870000  0.77511000  1.0
  O  O477  1  0.54230000  0.03832000  0.89975000  1.0
  O  O478  1  0.64104000  0.05098000  0.89146000  1.0
  O  O479  1  0.63042000  0.06852000  0.81282000  1.0
  O  O480  1  0.53176000  0.05318000  0.80826000  1.0
  O  O481  1  0.57528000  0.83170000  0.81779000  1.0
  O  O482  1  0.53768000  0.87152000  0.75857000  1.0
  O  O483  1  0.59338000  0.95526000  0.84221000  1.0
  O  O484  1  0.46574000  0.95552000  0.85041000  1.0
  O  O485  1  0.40964000  0.03682000  0.85338000  1.0
  O  O486  1  0.68350000  0.87312000  0.86159000  1.0
  O  O487  1  0.71042000  0.96818000  0.87371000  1.0
  Zn  Zn488  1  0.18760000  0.49072000  0.21029000  1.0
  Zn  Zn489  1  0.04798000  0.52854000  0.19602000  1.0
  Zn  Zn490  1  0.09554000  0.42088000  0.19312000  1.0
  Zn  Zn491  1  0.10096000  0.13036000  0.74906000  1.0
  Zn  Zn492  1  0.00984000  0.09032000  0.67176000  1.0
  Zn  Zn493  1  0.12480000  0.06682000  0.67946000  1.0
  Zn  Zn494  1  0.38614000  0.08150000  0.24440000  1.0
  Zn  Zn495  1  0.47716000  0.00642000  0.18119000  1.0
  Zn  Zn496  1  0.45064000  0.12134000  0.17938000  1.0
  Zn  Zn497  1  0.41632000  0.42216000  0.71998000  1.0
  Zn  Zn498  1  0.54682000  0.47782000  0.68916000  1.0
  Zn  Zn499  1  0.44234000  0.48456000  0.65037000  1.0
  Zn  Zn500  1  0.68162000  0.60152000  0.30701000  1.0
  Zn  Zn501  1  0.54320000  0.55864000  0.32375000  1.0
  Zn  Zn502  1  0.60282000  0.64576000  0.36142000  1.0
  Zn  Zn503  1  0.97804000  0.65406000  0.80544000  1.0
  Zn  Zn504  1  0.08450000  0.59998000  0.86609000  1.0
  Zn  Zn505  1  0.97024000  0.57072000  0.86531000  1.0
  Zn  Zn506  1  0.87944000  0.98122000  0.33347000  1.0
  Zn  Zn507  1  0.01930000  0.02746000  0.34221000  1.0
  Zn  Zn508  1  0.97656000  0.91812000  0.34979000  1.0
  Zn  Zn509  1  0.62694000  0.89214000  0.82403000  1.0
  Zn  Zn510  1  0.53256000  0.99924000  0.85006000  1.0
  Zn  Zn511  1  0.65012000  0.00406000  0.84495000  1.0
