# generated using pymatgen
data_Ag2H60(C16N3)3
_symmetry_space_group_name_H-M   'P 1'
_cell_length_a   36.34290000
_cell_length_b   47.52552193
_cell_length_c   47.53630000
_cell_angle_alpha   60.00750000
_cell_angle_beta   90.00000000
_cell_angle_gamma   90.00100023
_symmetry_Int_Tables_number   1
_chemical_formula_structural   Ag2H60(C16N3)3
_chemical_formula_sum   'Ag12 H360 C288 N54'
_cell_volume   71110.75633836
_cell_formula_units_Z   6
loop_
 _symmetry_equiv_pos_site_id
 _symmetry_equiv_pos_as_xyz
  1  'x, y, z'
loop_
 _atom_site_type_symbol
 _atom_site_label
 _atom_site_symmetry_multiplicity
 _atom_site_fract_x
 _atom_site_fract_y
 _atom_site_fract_z
 _atom_site_occupancy
  Ag  Ag0  1  0.85169000  0.43962000  0.14384000  1.0
  Ag  Ag1  1  0.67651000  0.59491000  0.50970000  1.0
  Ag  Ag2  1  0.55755000  0.12885000  0.34388000  1.0
  Ag  Ag3  1  0.34957000  0.50749000  0.82373000  1.0
  Ag  Ag4  1  0.19257000  0.35165000  0.42510000  1.0
  Ag  Ag5  1  0.00594000  0.79540000  0.60029000  1.0
  Ag  Ag6  1  0.25336000  0.35503000  0.13756000  1.0
  Ag  Ag7  1  0.06926000  0.52490000  0.60487000  1.0
  Ag  Ag8  1  0.89407000  0.13475000  0.45357000  1.0
  Ag  Ag9  1  0.75109000  0.58550000  0.83567000  1.0
  Ag  Ag10  1  0.57825000  0.41629000  0.36959000  1.0
  Ag  Ag11  1  0.39500000  0.81952000  0.51812000  1.0
  H  H12  1  0.91971000  0.42559000  0.11612000  1.0
  H  H13  1  0.99944000  0.38778000  0.19424000  1.0
  H  H14  1  0.95522000  0.39657000  0.22757000  1.0
  H  H15  1  0.89347000  0.41897000  0.20568000  1.0
  H  H16  1  0.79182000  0.46277000  0.09237000  1.0
  H  H17  1  0.85374000  0.37653000  0.14417000  1.0
  H  H18  1  0.81869000  0.35039000  0.11857000  1.0
  H  H19  1  0.76855000  0.38053000  0.08014000  1.0
  H  H20  1  0.77330000  0.44426000  0.16236000  1.0
  H  H21  1  0.76893000  0.53067000  0.17033000  1.0
  H  H22  1  0.83547000  0.53864000  0.15812000  1.0
  H  H23  1  0.86963000  0.49967000  0.14747000  1.0
  H  H24  1  0.74850000  0.55863000  0.53173000  1.0
  H  H25  1  0.82249000  0.62245000  0.54457000  1.0
  H  H26  1  0.77336000  0.66354000  0.52582000  1.0
  H  H27  1  0.71236000  0.65147000  0.51084000  1.0
  H  H28  1  0.67554000  0.54368000  0.48948000  1.0
  H  H29  1  0.65225000  0.54462000  0.57577000  1.0
  H  H30  1  0.63980000  0.48540000  0.60513000  1.0
  H  H31  1  0.64633000  0.45444000  0.57661000  1.0
  H  H32  1  0.61692000  0.63016000  0.52412000  1.0
  H  H33  1  0.56505000  0.69368000  0.43189000  1.0
  H  H34  1  0.60880000  0.67443000  0.40571000  1.0
  H  H35  1  0.65559000  0.63303000  0.43904000  1.0
  H  H36  1  0.63813000  0.11000000  0.35876000  1.0
  H  H37  1  0.69858000  0.19124000  0.28429000  1.0
  H  H38  1  0.64013000  0.22098000  0.26400000  1.0
  H  H39  1  0.58138000  0.19417000  0.29035000  1.0
  H  H40  1  0.56204000  0.05595000  0.38697000  1.0
  H  H41  1  0.53611000  0.13382000  0.40234000  1.0
  H  H42  1  0.52787000  0.09586000  0.46141000  1.0
  H  H43  1  0.53778000  0.03711000  0.48370000  1.0
  H  H44  1  0.49729000  0.17965000  0.31262000  1.0
  H  H45  1  0.43701000  0.15236000  0.25157000  1.0
  H  H46  1  0.47932000  0.10631000  0.26827000  1.0
  H  H47  1  0.52972000  0.09729000  0.30710000  1.0
  H  H48  1  0.41677000  0.52458000  0.84980000  1.0
  H  H49  1  0.49699000  0.55951000  0.77219000  1.0
  H  H50  1  0.45354000  0.54783000  0.74034000  1.0
  H  H51  1  0.39194000  0.52539000  0.76271000  1.0
  H  H52  1  0.34833000  0.48835000  0.89466000  1.0
  H  H53  1  0.30290000  0.56484000  0.80904000  1.0
  H  H54  1  0.27736000  0.59043000  0.83925000  1.0
  H  H55  1  0.28851000  0.56537000  0.89794000  1.0
  H  H56  1  0.27021000  0.50066000  0.80819000  1.0
  H  H57  1  0.26926000  0.41972000  0.79105000  1.0
  H  H58  1  0.33659000  0.41483000  0.79927000  1.0
  H  H59  1  0.36950000  0.45245000  0.81261000  1.0
  H  H60  1  0.27423000  0.34549000  0.44152000  1.0
  H  H61  1  0.32293000  0.30236000  0.38925000  1.0
  H  H62  1  0.26177000  0.30232000  0.36668000  1.0
  H  H63  1  0.20766000  0.32327000  0.38239000  1.0
  H  H64  1  0.15574000  0.36933000  0.47138000  1.0
  H  H65  1  0.24506000  0.40698000  0.40612000  1.0
  H  H66  1  0.25561000  0.44972000  0.42063000  1.0
  H  H67  1  0.21577000  0.45245000  0.46105000  1.0
  H  H68  1  0.15419000  0.28740000  0.44544000  1.0
  H  H69  1  0.04333000  0.31303000  0.40849000  1.0
  H  H70  1  0.05886000  0.37059000  0.38717000  1.0
  H  H71  1  0.12175000  0.38581000  0.39500000  1.0
  H  H72  1  0.08099000  0.80132000  0.57046000  1.0
  H  H73  1  0.15359000  0.74375000  0.65112000  1.0
  H  H74  1  0.10197000  0.73328000  0.68840000  1.0
  H  H75  1  0.04028000  0.75593000  0.66638000  1.0
  H  H76  1  0.01966000  0.86703000  0.57691000  1.0
  H  H77  1  0.97655000  0.81434000  0.53463000  1.0
  H  H78  1  0.97002000  0.86483000  0.48142000  1.0
  H  H79  1  0.98950000  0.91682000  0.47532000  1.0
  H  H80  1  0.94314000  0.78768000  0.64611000  1.0
  H  H81  1  0.87310000  0.71341000  0.64784000  1.0
  H  H82  1  0.91763000  0.70646000  0.61288000  1.0
  H  H83  1  0.97357000  0.74093000  0.59399000  1.0
  H  H84  1  0.17528000  0.38073000  0.11949000  1.0
  H  H85  1  0.10989000  0.32031000  0.20467000  1.0
  H  H86  1  0.16558000  0.28911000  0.23188000  1.0
  H  H87  1  0.22528000  0.30418000  0.20279000  1.0
  H  H88  1  0.30757000  0.39312000  0.08241000  1.0
  H  H89  1  0.22446000  0.41795000  0.12829000  1.0
  H  H90  1  0.23960000  0.47645000  0.09449000  1.0
  H  H91  1  0.29040000  0.49347000  0.05486000  1.0
  H  H92  1  0.29605000  0.31144000  0.19826000  1.0
  H  H93  1  0.36065000  0.24902000  0.17537000  1.0
  H  H94  1  0.33616000  0.27793000  0.12025000  1.0
  H  H95  1  0.29135000  0.32273000  0.10451000  1.0
  H  H96  1  0.99548000  0.51551000  0.58063000  1.0
  H  H97  1  0.91517000  0.51512000  0.64773000  1.0
  H  H98  1  0.96512000  0.52416000  0.67723000  1.0
  H  H99  1  0.02961000  0.52821000  0.65844000  1.0
  H  H100  1  0.08668000  0.46662000  0.59729000  1.0
  H  H101  1  0.09276000  0.56823000  0.53592000  1.0
  H  H102  1  0.11873000  0.56153000  0.49141000  1.0
  H  H103  1  0.12976000  0.50740000  0.49967000  1.0
  H  H104  1  0.11038000  0.49409000  0.66907000  1.0
  H  H105  1  0.18639000  0.56753000  0.66132000  1.0
  H  H106  1  0.16289000  0.60431000  0.60626000  1.0
  H  H107  1  0.11360000  0.58555000  0.58338000  1.0
  H  H108  1  0.82588000  0.13665000  0.41567000  1.0
  H  H109  1  0.75251000  0.20496000  0.42161000  1.0
  H  H110  1  0.79837000  0.21232000  0.45558000  1.0
  H  H111  1  0.85756000  0.18238000  0.46846000  1.0
  H  H112  1  0.93025000  0.06904000  0.48964000  1.0
  H  H113  1  0.88712000  0.12605000  0.39515000  1.0
  H  H114  1  0.90494000  0.08437000  0.38084000  1.0
  H  H115  1  0.93648000  0.03460000  0.42115000  1.0
  H  H116  1  0.97154000  0.16271000  0.43791000  1.0
  H  H117  1  0.01540000  0.14757000  0.52875000  1.0
  H  H118  1  0.95499000  0.12612000  0.55426000  1.0
  H  H119  1  0.90428000  0.12207000  0.52150000  1.0
  H  H120  1  0.67197000  0.56388000  0.85053000  1.0
  H  H121  1  0.61207000  0.62342000  0.76160000  1.0
  H  H122  1  0.66993000  0.65129000  0.73579000  1.0
  H  H123  1  0.72793000  0.63509000  0.76750000  1.0
  H  H124  1  0.74675000  0.54183000  0.90848000  1.0
  H  H125  1  0.75458000  0.52647000  0.82881000  1.0
  H  H126  1  0.75177000  0.46674000  0.86516000  1.0
  H  H127  1  0.74539000  0.44402000  0.92418000  1.0
  H  H128  1  0.79095000  0.64402000  0.78248000  1.0
  H  H129  1  0.88115000  0.66221000  0.83051000  1.0
  H  H130  1  0.86153000  0.61475000  0.88203000  1.0
  H  H131  1  0.80659000  0.58330000  0.88308000  1.0
  H  H132  1  0.50299000  0.39217000  0.39787000  1.0
  H  H133  1  0.42787000  0.43518000  0.31643000  1.0
  H  H134  1  0.47967000  0.46435000  0.28096000  1.0
  H  H135  1  0.54264000  0.45668000  0.30374000  1.0
  H  H136  1  0.63227000  0.44313000  0.39952000  1.0
  H  H137  1  0.55593000  0.36582000  0.43642000  1.0
  H  H138  1  0.57677000  0.34685000  0.49275000  1.0
  H  H139  1  0.62747000  0.37535000  0.50250000  1.0
  H  H140  1  0.61586000  0.44923000  0.30299000  1.0
  H  H141  1  0.70594000  0.38550000  0.31305000  1.0
  H  H142  1  0.68837000  0.34984000  0.37015000  1.0
  H  H143  1  0.63472000  0.36404000  0.39282000  1.0
  H  H144  1  0.31367000  0.80627000  0.51413000  1.0
  H  H145  1  0.28669000  0.72611000  0.60911000  1.0
  H  H146  1  0.34921000  0.72853000  0.62719000  1.0
  H  H147  1  0.39378000  0.76862000  0.58831000  1.0
  H  H148  1  0.45017000  0.87448000  0.48545000  1.0
  H  H149  1  0.35777000  0.85652000  0.54589000  1.0
  H  H150  1  0.36810000  0.90796000  0.54618000  1.0
  H  H151  1  0.42055000  0.94282000  0.51642000  1.0
  H  H152  1  0.42781000  0.75500000  0.53388000  1.0
  H  H153  1  0.48208000  0.77184000  0.44576000  1.0
  H  H154  1  0.46400000  0.82881000  0.42008000  1.0
  H  H155  1  0.42760000  0.84854000  0.45088000  1.0
  H  H156  1  0.73314000  0.43945000  0.21822000  1.0
  H  H157  1  0.71120000  0.50576000  0.16482000  1.0
  H  H158  1  0.71402000  0.47108000  0.15954000  1.0
  H  H159  1  0.70591000  0.49963000  0.21770000  1.0
  H  H160  1  0.75192000  0.48355000  0.22668000  1.0
  H  H161  1  0.73223000  0.43419000  0.27462000  1.0
  H  H162  1  0.71665000  0.46906000  0.27667000  1.0
  H  H163  1  0.65450000  0.46508000  0.25767000  1.0
  H  H164  1  0.68333000  0.40382000  0.25764000  1.0
  H  H165  1  0.63715000  0.41966000  0.24895000  1.0
  H  H166  1  0.67314000  0.43557000  0.19900000  1.0
  H  H167  1  0.65831000  0.47045000  0.20135000  1.0
  H  H168  1  0.48790000  0.71991000  0.47132000  1.0
  H  H169  1  0.47223000  0.71375000  0.53634000  1.0
  H  H170  1  0.43872000  0.70989000  0.51139000  1.0
  H  H171  1  0.53839000  0.71233000  0.52515000  1.0
  H  H172  1  0.53205000  0.74916000  0.48725000  1.0
  H  H173  1  0.55517000  0.72457000  0.45633000  1.0
  H  H174  1  0.58816000  0.71979000  0.48661000  1.0
  H  H175  1  0.56860000  0.66353000  0.52353000  1.0
  H  H176  1  0.51316000  0.67155000  0.47068000  1.0
  H  H177  1  0.52114000  0.63583000  0.50949000  1.0
  H  H178  1  0.46601000  0.66647000  0.50952000  1.0
  H  H179  1  0.49982000  0.66390000  0.53834000  1.0
  H  H180  1  0.36328000  0.21979000  0.22792000  1.0
  H  H181  1  0.35280000  0.27976000  0.23325000  1.0
  H  H182  1  0.31751000  0.25103000  0.24189000  1.0
  H  H183  1  0.41692000  0.26418000  0.23546000  1.0
  H  H184  1  0.40822000  0.26456000  0.19826000  1.0
  H  H185  1  0.42943000  0.20842000  0.22109000  1.0
  H  H186  1  0.46424000  0.23287000  0.22546000  1.0
  H  H187  1  0.44740000  0.21286000  0.28247000  1.0
  H  H188  1  0.38874000  0.16980000  0.27515000  1.0
  H  H189  1  0.39930000  0.17202000  0.31097000  1.0
  H  H190  1  0.34399000  0.20392000  0.28219000  1.0
  H  H191  1  0.37931000  0.22928000  0.28436000  1.0
  H  H192  1  0.22539000  0.50873000  0.75296000  1.0
  H  H193  1  0.21105000  0.43901000  0.80287000  1.0
  H  H194  1  0.21235000  0.47148000  0.81171000  1.0
  H  H195  1  0.20557000  0.44979000  0.74797000  1.0
  H  H196  1  0.24896000  0.47085000  0.73750000  1.0
  H  H197  1  0.22180000  0.52009000  0.69404000  1.0
  H  H198  1  0.21080000  0.48600000  0.68890000  1.0
  H  H199  1  0.14926000  0.48063000  0.71353000  1.0
  H  H200  1  0.17046000  0.54124000  0.71824000  1.0
  H  H201  1  0.12670000  0.52071000  0.72838000  1.0
  H  H202  1  0.16580000  0.50433000  0.77682000  1.0
  H  H203  1  0.15499000  0.47040000  0.77141000  1.0
  H  H204  1  0.01795000  0.21750000  0.43887000  1.0
  H  H205  1  0.05733000  0.15522000  0.48320000  1.0
  H  H206  1  0.03764000  0.16373000  0.44529000  1.0
  H  H207  1  0.07070000  0.19738000  0.49466000  1.0
  H  H208  1  0.02243000  0.20610000  0.49417000  1.0
  H  H209  1  0.03047000  0.26249000  0.45323000  1.0
  H  H210  1  0.06121000  0.25206000  0.48672000  1.0
  H  H211  1  0.11305000  0.24475000  0.45701000  1.0
  H  H212  1  0.05786000  0.26636000  0.40030667  1.0
  H  H213  1  0.10622000  0.25840000  0.39961000  1.0
  H  H214  1  0.06764000  0.21160000  0.40896000  1.0
  H  H215  1  0.09836000  0.20130000  0.44240000  1.0
  H  H216  1  0.85230000  0.71107000  0.69312000  1.0
  H  H217  1  0.88910000  0.77371000  0.67841000  1.0
  H  H218  1  0.85376000  0.76908000  0.65487000  1.0
  H  H219  1  0.90830000  0.72558000  0.73078000  1.0
  H  H220  1  0.91552000  0.70133000  0.71195000  1.0
  H  H221  1  0.87004000  0.66084000  0.74731000  1.0
  H  H222  1  0.90408000  0.66727000  0.77109000  1.0
  H  H223  1  0.86231000  0.70478000  0.77752000  1.0
  H  H224  1  0.80601000  0.68974000  0.73795000  1.0
  H  H225  1  0.79770000  0.71332000  0.75759000  1.0
  H  H226  1  0.81155000  0.74764000  0.69894000  1.0
  H  H227  1  0.84534000  0.75296000  0.72353000  1.0
  H  H228  1  0.77666000  0.47719000  0.02247000  1.0
  H  H229  1  0.72257000  0.42498000  0.06405000  1.0
  H  H230  1  0.73371000  0.45965000  0.06789000  1.0
  H  H231  1  0.74690000  0.41970000  0.01935000  1.0
  H  H232  1  0.79396000  0.42723000  0.02553000  1.0
  H  H233  1  0.79858000  0.47436000  0.97118000  1.0
  H  H234  1  0.78329000  0.43909000  0.96972000  1.0
  H  H235  1  0.71807000  0.45758000  0.96506000  1.0
  H  H236  1  0.75216000  0.51755000  0.96451000  1.0
  H  H237  1  0.70434000  0.51270000  0.95725000  1.0
  H  H238  1  0.71577000  0.49882000  0.01414000  1.0
  H  H239  1  0.69825000  0.46484000  0.01151000  1.0
  H  H240  1  0.63943000  0.47101000  0.44872000  1.0
  H  H241  1  0.68377000  0.40953000  0.47628000  1.0
  H  H242  1  0.68235000  0.44065000  0.43441000  1.0
  H  H243  1  0.65151000  0.41662000  0.51719000  1.0
  H  H244  1  0.60858000  0.42981000  0.49536000  1.0
  H  H245  1  0.61088000  0.48182000  0.49364000  1.0
  H  H246  1  0.61527000  0.44855000  0.53457000  1.0
  H  H247  1  0.68382000  0.45503000  0.53077000  1.0
  H  H248  1  0.66732000  0.51369000  0.46270000  1.0
  H  H249  1  0.71179000  0.50309000  0.48241000  1.0
  H  H250  1  0.70362000  0.48270000  0.44396000  1.0
  H  H251  1  0.71124000  0.45051000  0.48489000  1.0
  H  H252  1  0.51178000  0.99292000  0.48078000  1.0
  H  H253  1  0.56871000  0.00131000  0.43125000  1.0
  H  H254  1  0.57944000  0.99923000  0.46900000  1.0
  H  H255  1  0.51005000  0.98093000  0.42430000  1.0
  H  H256  1  0.48898000  0.01456000  0.42547000  1.0
  H  H257  1  0.44854000  0.97907000  0.46976000  1.0
  H  H258  1  0.44400000  0.97051000  0.43712000  1.0
  H  H259  1  0.48468000  0.92293000  0.46430000  1.0
  H  H260  1  0.49076000  0.93698000  0.52096000  1.0
  H  H261  1  0.51140000  0.90391000  0.51836000  1.0
  H  H262  1  0.55536000  0.94861000  0.50515000  1.0
  H  H263  1  0.54913000  0.94193000  0.47138000  1.0
  H  H264  1  0.31339000  0.44193000  0.00960000  1.0
  H  H265  1  0.34877000  0.47600000  0.04145000  1.0
  H  H266  1  0.35537000  0.43436000  0.05234000  1.0
  H  H267  1  0.30893000  0.51124000  0.99483000  1.0
  H  H268  1  0.27181000  0.48239000  0.00652000  1.0
  H  H269  1  0.27676000  0.48001000  0.95656000  1.0
  H  H270  1  0.27081000  0.52102000  0.94827000  1.0
  H  H271  1  0.33879000  0.53013000  0.94043000  1.0
  H  H272  1  0.34065000  0.45998000  0.95202000  1.0
  H  H273  1  0.37922000  0.48768000  0.94017000  1.0
  H  H274  1  0.37808000  0.44892000  0.99937000  1.0
  H  H275  1  0.37495000  0.49050000  0.98989000  1.0
  H  H276  1  0.15779000  0.46003000  0.52412000  1.0
  H  H277  1  0.12868000  0.43417000  0.58167000  1.0
  H  H278  1  0.08765000  0.43454000  0.56180000  1.0
  H  H279  1  0.13382000  0.39053000  0.55932000  1.0
  H  H280  1  0.17262000  0.40743000  0.56927000  1.0
  H  H281  1  0.20239000  0.42417000  0.51757000  1.0
  H  H282  1  0.19125000  0.38166000  0.53711000  1.0
  H  H283  1  0.13659000  0.39199000  0.50319000  1.0
  H  H284  1  0.15501000  0.46537000  0.46920000  1.0
  H  H285  1  0.11727000  0.44625000  0.46069000  1.0
  H  H286  1  0.09788000  0.46948000  0.49472000  1.0
  H  H287  1  0.09161000  0.42650000  0.51560000  1.0
  H  H288  1  0.99590000  0.96000000  0.47869000  1.0
  H  H289  1  0.02098000  0.92525000  0.54832000  1.0
  H  H290  1  0.04757000  0.93110000  0.51428000  1.0
  H  H291  1  0.95994000  0.95359000  0.53873000  1.0
  H  H292  1  0.94481000  0.93378000  0.51702000  1.0
  H  H293  1  0.93290000  0.98505000  0.46790000  1.0
  H  H294  1  0.90891000  0.98394000  0.50151000  1.0
  H  H295  1  0.95608000  0.01723000  0.50797000  1.0
  H  H296  1  0.99699000  0.02018000  0.44955000  1.0
  H  H297  1  0.01017000  0.03911000  0.47269000  1.0
  H  H298  1  0.04451000  0.98816000  0.48902000  1.0
  H  H299  1  0.01814000  0.98570000  0.52219000  1.0
  H  H300  1  0.01984000  0.36568000  0.16631000  1.0
  H  H301  1  0.97253000  0.38781000  0.11986000  1.0
  H  H302  1  0.99370000  0.42579000  0.10648000  1.0
  H  H303  1  0.04451000  0.38987000  0.09794000  1.0
  H  H304  1  0.01873000  0.35340000  0.12298000  1.0
  H  H305  1  0.06776000  0.33017000  0.16282000  1.0
  H  H306  1  0.08541000  0.34202000  0.12310000  1.0
  H  H307  1  0.11184000  0.39218000  0.11706000  1.0
  H  H308  1  0.08173000  0.37217000  0.18547000  1.0
  H  H309  1  0.10799000  0.40785000  0.15896000  1.0
  H  H310  1  0.04146000  0.41984000  0.15639000  1.0
  H  H311  1  0.05831000  0.42759000  0.11791000  1.0
  H  H312  1  0.89996000  0.55383000  0.58312000  1.0
  H  H313  1  0.93347000  0.50563000  0.57352000  1.0
  H  H314  1  0.90936000  0.48404000  0.61050000  1.0
  H  H315  1  0.87606000  0.52623000  0.54153000  1.0
  H  H316  1  0.91071000  0.55682000  0.53174000  1.0
  H  H317  1  0.86625000  0.59455000  0.53298000  1.0
  H  H318  1  0.85043000  0.58087000  0.50597000  1.0
  H  H319  1  0.80907000  0.54051000  0.54795000  1.0
  H  H320  1  0.83575000  0.56695000  0.59212000  1.0
  H  H321  1  0.80114000  0.53637000  0.60150000  1.0
  H  H322  1  0.86137000  0.51210000  0.62547000  1.0
  H  H323  1  0.84649000  0.50016000  0.59701000  1.0
  H  H324  1  0.75503000  0.12084000  0.36229000  1.0
  H  H325  1  0.72477000  0.13357000  0.31369000  1.0
  H  H326  1  0.70193000  0.10265000  0.34859000  1.0
  H  H327  1  0.72335000  0.18777000  0.33421000  1.0
  H  H328  1  0.75967000  0.17579000  0.31646000  1.0
  H  H329  1  0.79893000  0.15957000  0.36406000  1.0
  H  H330  1  0.78362000  0.20083000  0.34794000  1.0
  H  H331  1  0.73433000  0.18374000  0.38888000  1.0
  H  H332  1  0.76332000  0.11360000  0.41749000  1.0
  H  H333  1  0.72628000  0.12727000  0.43285000  1.0
  H  H334  1  0.70394000  0.10284000  0.40004000  1.0
  H  H335  1  0.68983000  0.14452000  0.38312000  1.0
  H  H336  1  0.51840000  0.58277000  0.79848000  1.0
  H  H337  1  0.46922000  0.56544000  0.84243000  1.0
  H  H338  1  0.48906000  0.52640000  0.86005000  1.0
  H  H339  1  0.54092000  0.56161000  0.86675000  1.0
  H  H340  1  0.51719000  0.59851000  0.83929000  1.0
  H  H341  1  0.56798000  0.61773000  0.80092000  1.0
  H  H342  1  0.58424000  0.60765000  0.84060000  1.0
  H  H343  1  0.60816000  0.55507000  0.85089000  1.0
  H  H344  1  0.58063000  0.57257000  0.78242000  1.0
  H  H345  1  0.60478000  0.53645000  0.81116000  1.0
  H  H346  1  0.53775000  0.52699000  0.81206000  1.0
  H  H347  1  0.55345000  0.52069000  0.85036000  1.0
  H  H348  1  0.36672000  0.34121000  0.38710000  1.0
  H  H349  1  0.33806000  0.32976000  0.45136000  1.0
  H  H350  1  0.34966000  0.29748000  0.44393000  1.0
  H  H351  1  0.36383000  0.38307000  0.41808000  1.0
  H  H352  1  0.33452000  0.38663000  0.38598000  1.0
  H  H353  1  0.38667000  0.39844000  0.34944000  1.0
  H  H354  1  0.38579000  0.42654000  0.36462000  1.0
  H  H355  1  0.43332000  0.39421000  0.40600000  1.0
  H  H356  1  0.43465000  0.35020000  0.37552000  1.0
  H  H357  1  0.46309000  0.34633000  0.40826000  1.0
  H  H358  1  0.41083000  0.30832000  0.42839000  1.0
  H  H359  1  0.40921000  0.33631000  0.44345000  1.0
  H  H360  1  0.23102000  0.74484000  0.59290000  1.0
  H  H361  1  0.25224000  0.78595000  0.52256000  1.0
  H  H362  1  0.25704000  0.74282000  0.54567000  1.0
  H  H363  1  0.21376000  0.81428000  0.54348000  1.0
  H  H364  1  0.24581000  0.80119000  0.57650000  1.0
  H  H365  1  0.19807000  0.77431000  0.61690000  1.0
  H  H366  1  0.18480000  0.81570000  0.58974000  1.0
  H  H367  1  0.14410000  0.79986000  0.55875000  1.0
  H  H368  1  0.16566000  0.72856000  0.60611000  1.0
  H  H369  1  0.13407000  0.74333000  0.57251000  1.0
  H  H370  1  0.19527000  0.73062000  0.55895000  1.0
  H  H371  1  0.18385000  0.77282000  0.53332000  1.0
  C  C372  1  0.77693000  0.42452000  0.08234000  1.0
  C  C373  1  0.79764000  0.43839000  0.09731000  1.0
  C  C374  1  0.81266000  0.37511000  0.11235000  1.0
  C  C375  1  0.83240000  0.38986000  0.12664000  1.0
  C  C376  1  0.78450000  0.39233000  0.09054000  1.0
  C  C377  1  0.78644000  0.46495000  0.16183000  1.0
  C  C378  1  0.76593000  0.48644000  0.16791000  1.0
  C  C379  1  0.78393000  0.51334000  0.16626000  1.0
  C  C380  1  0.84065000  0.49610000  0.15329000  1.0
  C  C381  1  0.82146000  0.51803000  0.15926000  1.0
  C  C382  1  0.92833000  0.41929000  0.14038000  1.0
  C  C383  1  0.96371000  0.40650000  0.15157000  1.0
  C  C384  1  0.97313000  0.39813000  0.18364000  1.0
  C  C385  1  0.94799000  0.40293000  0.20303000  1.0
  C  C386  1  0.91333000  0.41560000  0.19069000  1.0
  C  C387  1  0.66086000  0.49632000  0.53033000  1.0
  C  C388  1  0.66736000  0.53012000  0.51465000  1.0
  C  C389  1  0.64739000  0.49773000  0.57974000  1.0
  C  C390  1  0.65431000  0.53099000  0.56321000  1.0
  C  C391  1  0.65096000  0.48043000  0.56335000  1.0
  C  C392  1  0.61474000  0.64047000  0.49810000  1.0
  C  C393  1  0.58774000  0.66397000  0.48029000  1.0
  C  C394  1  0.58575000  0.67607000  0.44660000  1.0
  C  C395  1  0.63661000  0.64189000  0.45033000  1.0
  C  C396  1  0.61032000  0.66515000  0.43160000  1.0
  C  C397  1  0.75481000  0.58155000  0.53031000  1.0
  C  C398  1  0.78990000  0.58721000  0.53904000  1.0
  C  C399  1  0.79628000  0.61717000  0.53746000  1.0
  C  C400  1  0.76850000  0.64051000  0.52704000  1.0
  C  C401  1  0.73424000  0.63373000  0.51858000  1.0
  C  C402  1  0.54988000  0.04168000  0.43696000  1.0
  C  C403  1  0.55425000  0.06408000  0.40371000  1.0
  C  C404  1  0.53515000  0.08669000  0.44542000  1.0
  C  C405  1  0.53979000  0.10800000  0.41223000  1.0
  C  C406  1  0.54055000  0.05350000  0.45783000  1.0
  C  C407  1  0.49288000  0.16405000  0.30241000  1.0
  C  C408  1  0.46388000  0.17026000  0.28039000  1.0
  C  C409  1  0.45917000  0.14894000  0.26818000  1.0
  C  C410  1  0.51123000  0.11764000  0.29947000  1.0
  C  C411  1  0.48293000  0.12270000  0.27763000  1.0
  C  C412  1  0.63932000  0.13453000  0.33839000  1.0
  C  C413  1  0.67332000  0.14868000  0.32419000  1.0
  C  C414  1  0.67322000  0.17998000  0.29679000  1.0
  C  C415  1  0.64023000  0.19680000  0.28497000  1.0
  C  C416  1  0.60723000  0.18175000  0.29985000  1.0
  C  C417  1  0.31852000  0.52408000  0.90189000  1.0
  C  C418  1  0.33231000  0.51043000  0.88355000  1.0
  C  C419  1  0.29259000  0.56792000  0.85192000  1.0
  C  C420  1  0.30687000  0.55349000  0.83500000  1.0
  C  C421  1  0.29880000  0.55342000  0.88521000  1.0
  C  C422  1  0.28425000  0.48185000  0.80585000  1.0
  C  C423  1  0.26443000  0.46103000  0.79835000  1.0
  C  C424  1  0.28366000  0.43652000  0.79628000  1.0
  C  C425  1  0.34013000  0.45472000  0.80852000  1.0
  C  C426  1  0.32165000  0.43356000  0.80103000  1.0
  C  C427  1  0.42565000  0.52961000  0.82599000  1.0
  C  C428  1  0.46097000  0.54247000  0.81448000  1.0
  C  C429  1  0.47071000  0.54921000  0.78299000  1.0
  C  C430  1  0.44604000  0.54274000  0.76445000  1.0
  C  C431  1  0.41144000  0.53006000  0.77706000  1.0
  C  C432  1  0.18226000  0.41102000  0.46970000  1.0
  C  C433  1  0.17743000  0.38721000  0.46067000  1.0
  C  C434  1  0.23361000  0.43230000  0.43202000  1.0
  C  C435  1  0.22767000  0.40825000  0.42390000  1.0
  C  C436  1  0.21091000  0.43369000  0.45492000  1.0
  C  C437  1  0.13273000  0.30512000  0.43298000  1.0
  C  C438  1  0.09735000  0.29520000  0.42935000  1.0
  C  C439  1  0.07070000  0.31934000  0.41239000  1.0
  C  C440  1  0.11470000  0.36054000  0.40456000  1.0
  C  C441  1  0.07934000  0.35201000  0.40014000  1.0
  C  C442  1  0.27220000  0.33619000  0.42495000  1.0
  C  C443  1  0.30364000  0.32465000  0.41666000  1.0
  C  C444  1  0.29952000  0.31216000  0.39560000  1.0
  C  C445  1  0.26501000  0.31186000  0.38295000  1.0
  C  C446  1  0.23461000  0.32360000  0.39184000  1.0
  C  C447  1  0.00480000  0.89673000  0.52616000  1.0
  C  C448  1  0.00820000  0.86732000  0.55576000  1.0
  C  C449  1  0.98054000  0.86584000  0.50217000  1.0
  C  C450  1  0.98420000  0.83749000  0.53207000  1.0
  C  C451  1  0.99137000  0.89542000  0.49904000  1.0
  C  C452  1  0.93726000  0.76931000  0.63965000  1.0
  C  C453  1  0.90515000  0.75027000  0.65107000  1.0
  C  C454  1  0.89804000  0.72771000  0.64083000  1.0
  C  C455  1  0.95445000  0.74323000  0.61014000  1.0
  C  C456  1  0.92298000  0.72386000  0.62072000  1.0
  C  C457  1  0.08651000  0.78688000  0.59621000  1.0
  C  C458  1  0.12207000  0.77463000  0.60745000  1.0
  C  C459  1  0.12726000  0.75486000  0.64118000  1.0
  C  C460  1  0.09800000  0.74850000  0.66251000  1.0
  C  C461  1  0.06335000  0.76128000  0.65012000  1.0
  C  C462  1  0.30245000  0.44470000  0.06479000  1.0
  C  C463  1  0.29266000  0.41183000  0.08428000  1.0
  C  C464  1  0.25456000  0.45854000  0.09135000  1.0
  C  C465  1  0.24599000  0.42566000  0.11025000  1.0
  C  C466  1  0.28317000  0.46800000  0.06892000  1.0
  C  C467  1  0.30550000  0.30377000  0.18154000  1.0
  C  C468  1  0.33084000  0.27806000  0.19191000  1.0
  C  C469  1  0.34167000  0.26871000  0.16925000  1.0
  C  C470  1  0.30262000  0.31022000  0.12878000  1.0
  C  C471  1  0.32778000  0.28500000  0.13766000  1.0
  C  C472  1  0.17240000  0.36073000  0.14409000  1.0
  C  C473  1  0.13787000  0.35321000  0.15959000  1.0
  C  C474  1  0.13576000  0.32703000  0.19165000  1.0
  C  C475  1  0.16718000  0.30924000  0.20724000  1.0
  C  C476  1  0.20073000  0.31770000  0.19085000  1.0
  C  C477  1  0.10880000  0.48174000  0.54948000  1.0
  C  C478  1  0.09376000  0.48701000  0.57378000  1.0
  C  C479  1  0.11177000  0.54044000  0.51440000  1.0
  C  C480  1  0.09708000  0.54419000  0.53941000  1.0
  C  C481  1  0.11783000  0.50928000  0.51944000  1.0
  C  C482  1  0.12238000  0.51809000  0.65583000  1.0
  C  C483  1  0.15042000  0.52754000  0.66986000  1.0
  C  C484  1  0.16493000  0.55909000  0.65156000  1.0
  C  C485  1  0.12400000  0.56951000  0.60755000  1.0
  C  C486  1  0.15173000  0.58007000  0.62038000  1.0
  C  C487  1  0.98808000  0.51752000  0.60160000  1.0
  C  C488  1  0.95107000  0.51512000  0.61130000  1.0
  C  C489  1  0.94305000  0.51736000  0.63901000  1.0
  C  C490  1  0.97125000  0.52232000  0.65595000  1.0
  C  C491  1  0.00749000  0.52456000  0.64539000  1.0
  C  C492  1  0.93531000  0.04722000  0.45923000  1.0
  C  C493  1  0.92467000  0.07162000  0.46611000  1.0
  C  C494  1  0.91045000  0.08048000  0.40488000  1.0
  C  C495  1  0.90042000  0.10389000  0.41295000  1.0
  C  C496  1  0.92811000  0.05224000  0.42795000  1.0
  C  C497  1  0.96833000  0.15542000  0.46328000  1.0
  C  C498  1  0.99796000  0.15803000  0.48090000  1.0
  C  C499  1  0.99295000  0.14693000  0.51411000  1.0
  C  C500  1  0.93045000  0.13237000  0.51027000  1.0
  C  C501  1  0.95897000  0.13455000  0.52872000  1.0
  C  C502  1  0.81923000  0.15349000  0.42393000  1.0
  C  C503  1  0.78543000  0.17033000  0.41553000  1.0
  C  C504  1  0.77813000  0.19158000  0.42734000  1.0
  C  C505  1  0.80396000  0.19590000  0.44655000  1.0
  C  C506  1  0.83721000  0.17904000  0.45380000  1.0
  C  C507  1  0.74597000  0.49081000  0.92170000  1.0
  C  C508  1  0.74805000  0.52461000  0.90000000  1.0
  C  C509  1  0.75080000  0.48276000  0.87517000  1.0
  C  C510  1  0.75247000  0.51630000  0.85479000  1.0
  C  C511  1  0.74733000  0.47010000  0.90854000  1.0
  C  C512  1  0.80680000  0.63861000  0.80376000  1.0
  C  C513  1  0.83748000  0.65768000  0.80200000  1.0
  C  C514  1  0.85723000  0.64852000  0.83072000  1.0
  C  C515  1  0.81544000  0.60404000  0.86052000  1.0
  C  C516  1  0.84629000  0.62171000  0.85997000  1.0
  C  C517  1  0.67074000  0.58302000  0.82539000  1.0
  C  C518  1  0.63711000  0.59125000  0.80843000  1.0
  C  C519  1  0.63718000  0.61620000  0.77573000  1.0
  C  C520  1  0.66985000  0.63213000  0.76093000  1.0
  C  C521  1  0.70244000  0.62305000  0.77881000  1.0
  C  C522  1  0.63284000  0.41260000  0.45190000  1.0
  C  C523  1  0.61983000  0.42266000  0.42039000  1.0
  C  C524  1  0.58883000  0.36827000  0.47266000  1.0
  C  C525  1  0.57698000  0.37909000  0.44100000  1.0
  C  C526  1  0.61731000  0.38467000  0.47801000  1.0
  C  C527  1  0.63233000  0.42771000  0.31724000  1.0
  C  C528  1  0.66269000  0.42078000  0.30325000  1.0
  C  C529  1  0.68278000  0.39219000  0.32277000  1.0
  C  C530  1  0.64275000  0.37979000  0.36783000  1.0
  C  C531  1  0.67291000  0.37178000  0.35511000  1.0
  C  C532  1  0.49709000  0.40793000  0.37237000  1.0
  C  C533  1  0.46084000  0.41082000  0.36067000  1.0
  C  C534  1  0.45487000  0.43165000  0.32717000  1.0
  C  C535  1  0.48424000  0.44845000  0.30668000  1.0
  C  C536  1  0.51963000  0.44425000  0.31951000  1.0
  C  C537  1  0.43920000  0.91214000  0.49736000  1.0
  C  C538  1  0.43226000  0.88263000  0.49811000  1.0
  C  C539  1  0.38613000  0.90119000  0.53245000  1.0
  C  C540  1  0.38034000  0.87230000  0.53225000  1.0
  C  C541  1  0.41576000  0.92098000  0.51524000  1.0
  C  C542  1  0.43650000  0.77076000  0.50902000  1.0
  C  C543  1  0.45721000  0.75823000  0.49272000  1.0
  C  C544  1  0.46679000  0.77968000  0.46006000  1.0
  C  C545  1  0.43607000  0.82341000  0.46239000  1.0
  C  C546  1  0.45651000  0.81231000  0.44507000  1.0
  C  C547  1  0.32055000  0.78941000  0.53920000  1.0
  C  C548  1  0.29417000  0.76720000  0.56037000  1.0
  C  C549  1  0.30515000  0.74478000  0.59228000  1.0
  C  C550  1  0.34080000  0.74565000  0.60264000  1.0
  C  C551  1  0.36583000  0.76819000  0.58077000  1.0
  C  C552  1  0.72493000  0.48176000  0.17406000  1.0
  C  C553  1  0.72244000  0.47686000  0.22785000  1.0
  C  C554  1  0.71278000  0.45503000  0.26392000  1.0
  C  C555  1  0.67266000  0.44328000  0.26784000  1.0
  C  C556  1  0.66661000  0.42641000  0.24782000  1.0
  C  C557  1  0.67730000  0.44917000  0.21220000  1.0
  C  C558  1  0.46534000  0.72191000  0.51052000  1.0
  C  C559  1  0.53122000  0.72225000  0.49906000  1.0
  C  C560  1  0.56071000  0.71187000  0.48287000  1.0
  C  C561  1  0.56065000  0.67468000  0.49748000  1.0
  C  C562  1  0.52162000  0.66282000  0.49622000  1.0
  C  C563  1  0.49370000  0.67508000  0.51189000  1.0
  C  C564  1  0.34308000  0.26110000  0.22730000  1.0
  C  C565  1  0.40816000  0.24877000  0.22508000  1.0
  C  C566  1  0.43667000  0.22170000  0.23404000  1.0
  C  C567  1  0.43778000  0.19856000  0.27111000  1.0
  C  C568  1  0.39880000  0.18611000  0.28399000  1.0
  C  C569  1  0.37170000  0.21451000  0.27295000  1.0
  C  C570  1  0.22298000  0.46348000  0.79484000  1.0
  C  C571  1  0.21884000  0.47396000  0.73892000  1.0
  C  C572  1  0.20554000  0.49725000  0.70415000  1.0
  C  C573  1  0.16418000  0.50416000  0.70393000  1.0
  C  C574  1  0.15678000  0.51734000  0.72704000  1.0
  C  C575  1  0.17110000  0.49342000  0.76123000  1.0
  C  C576  1  0.03541000  0.16946000  0.46527000  1.0
  C  C577  1  0.04746000  0.21210000  0.47884000  1.0
  C  C578  1  0.05546000  0.24829000  0.46587000  1.0
  C  C579  1  0.08882000  0.25939000  0.44290000  1.0
  C  C580  1  0.08156000  0.25195000  0.41547000  1.0
  C  C581  1  0.07334000  0.21563000  0.42969000  1.0
  C  C582  1  0.87746000  0.75652000  0.67122000  1.0
  C  C583  1  0.89446000  0.70925000  0.72351000  1.0
  C  C584  1  0.88056000  0.67862000  0.75413000  1.0
  C  C585  1  0.85008000  0.68748000  0.77073000  1.0
  C  C586  1  0.81907000  0.70552000  0.74620000  1.0
  C  C587  1  0.83468000  0.73555000  0.71621000  1.0
  C  C588  1  0.74489000  0.44262000  0.06031000  1.0
  C  C589  1  0.76768000  0.43910000  0.01356000  1.0
  C  C590  1  0.77517000  0.45723000  0.97683000  1.0
  C  C591  1  0.74066000  0.47572000  0.95822000  1.0
  C  C592  1  0.72986000  0.49951000  0.96981000  1.0
  C  C593  1  0.72278000  0.48075000  0.00658000  1.0
  C  C594  1  0.66597000  0.42873000  0.45728000  1.0
  C  C595  1  0.63617000  0.43809000  0.49829000  1.0
  C  C596  1  0.62942000  0.46191000  0.51071000  1.0
  C  C597  1  0.66608000  0.47592000  0.51408000  1.0
  C  C598  1  0.68469000  0.49327000  0.48060000  1.0
  C  C599  1  0.69092000  0.46911000  0.46851000  1.0
  C  C600  1  0.55746000  0.00589000  0.45041000  1.0
  C  C601  1  0.49754000  0.98875000  0.44071000  1.0
  C  C602  1  0.46276000  0.96850000  0.45650000  1.0
  C  C603  1  0.47260000  0.93247000  0.47943000  1.0
  C  C604  1  0.50213000  0.92957000  0.50390000  1.0
  C  C605  1  0.53543000  0.95105000  0.48628000  1.0
  C  C606  1  0.33514000  0.45468000  0.04205000  1.0
  C  C607  1  0.29855000  0.48988000  0.99348000  1.0
  C  C608  1  0.29037000  0.50031000  0.95788000  1.0
  C  C609  1  0.32613000  0.51008000  0.93802000  1.0
  C  C610  1  0.35251000  0.48090000  0.95332000  1.0
  C  C611  1  0.35971000  0.47056000  0.98904000  1.0
  C  C612  1  0.11490000  0.44675000  0.55749000  1.0
  C  C613  1  0.15473000  0.41036000  0.54896000  1.0
  C  C614  1  0.17933000  0.40652000  0.52479000  1.0
  C  C615  1  0.15721000  0.41194000  0.49481000  1.0
  C  C616  1  0.13590000  0.44428000  0.48013000  1.0
  C  C617  1  0.11290000  0.44601000  0.50630000  1.0
  C  C618  1  0.01893000  0.92803000  0.52366000  1.0
  C  C619  1  0.95928000  0.95560000  0.51435000  1.0
  C  C620  1  0.93658000  0.98556000  0.49084000  1.0
  C  C621  1  0.95562000  0.01721000  0.48454000  1.0
  C  C622  1  0.99579000  0.01785000  0.47401000  1.0
  C  C623  1  0.01605000  0.98671000  0.49830000  1.0
  C  C624  1  0.98893000  0.40174000  0.12862000  1.0
  C  C625  1  0.03910000  0.37061000  0.12355000  1.0
  C  C626  1  0.07462000  0.35138000  0.13873000  1.0
  C  C627  1  0.10399000  0.37294000  0.14204000  1.0
  C  C628  1  0.08777000  0.38998000  0.15961000  1.0
  C  C629  1  0.05202000  0.40785000  0.14310000  1.0
  C  C630  1  0.92089000  0.50846000  0.59334000  1.0
  C  C631  1  0.88483000  0.54638000  0.54564000  1.0
  C  C632  1  0.85542000  0.57326000  0.53187000  1.0
  C  C633  1  0.81921000  0.56092000  0.55107000  1.0
  C  C634  1  0.82674000  0.54730000  0.58741000  1.0
  C  C635  1  0.85673000  0.52107000  0.59926000  1.0
  C  C636  1  0.70861000  0.12906000  0.33546000  1.0
  C  C637  1  0.74617000  0.17014000  0.33973000  1.0
  C  C638  1  0.77455000  0.17504000  0.36082000  1.0
  C  C639  1  0.75754000  0.16656000  0.39383000  1.0
  C  C640  1  0.74113000  0.13206000  0.41044000  1.0
  C  C641  1  0.71399000  0.12839000  0.38756000  1.0
  C  C642  1  0.48555000  0.54930000  0.83641000  1.0
  C  C643  1  0.53682000  0.57991000  0.84059000  1.0
  C  C644  1  0.57340000  0.59729000  0.82584000  1.0
  C  C645  1  0.60188000  0.57359000  0.82522000  1.0
  C  C646  1  0.58534000  0.55560000  0.80874000  1.0
  C  C647  1  0.54852000  0.53969000  0.82458000  1.0
  C  C648  1  0.34066000  0.32332000  0.43189000  1.0
  C  C649  1  0.36236000  0.37902000  0.39694000  1.0
  C  C650  1  0.39080000  0.40087000  0.37131000  1.0
  C  C651  1  0.43034000  0.39093000  0.38448000  1.0
  C  C652  1  0.43578000  0.35456000  0.39643000  1.0
  C  C653  1  0.40601000  0.33418000  0.42126000  1.0
  C  C654  1  0.25652000  0.76520000  0.54762000  1.0
  C  C655  1  0.22022000  0.79435000  0.56853000  1.0
  C  C656  1  0.18904000  0.79162000  0.59171000  1.0
  C  C657  1  0.15278000  0.78042000  0.58336000  1.0
  C  C658  1  0.15932000  0.74939000  0.58158000  1.0
  C  C659  1  0.19134000  0.75402000  0.55861000  1.0
  N  N660  1  0.90418000  0.42329000  0.15999000  1.0
  N  N661  1  0.82433000  0.42074000  0.11917000  1.0
  N  N662  1  0.82287000  0.47040000  0.15445000  1.0
  N  N663  1  0.72812000  0.60464000  0.52048000  1.0
  N  N664  1  0.66423000  0.54630000  0.53143000  1.0
  N  N665  1  0.63819000  0.63006000  0.48288000  1.0
  N  N666  1  0.60739000  0.15109000  0.32574000  1.0
  N  N667  1  0.54937000  0.09640000  0.39230000  1.0
  N  N668  1  0.51555000  0.13814000  0.31136000  1.0
  N  N669  1  0.40196000  0.52399000  0.80719000  1.0
  N  N670  1  0.32648000  0.52552000  0.85093000  1.0
  N  N671  1  0.32121000  0.47803000  0.81103000  1.0
  N  N672  1  0.23872000  0.33526000  0.41256000  1.0
  N  N673  1  0.20004000  0.38639000  0.43827000  1.0
  N  N674  1  0.14048000  0.33720000  0.42060000  1.0
  N  N675  1  0.05829000  0.77983000  0.61756000  1.0
  N  N676  1  0.99816000  0.83871000  0.55793000  1.0
  N  N677  1  0.96074000  0.76556000  0.61946000  1.0
  N  N678  1  0.20270000  0.34305000  0.15994000  1.0
  N  N679  1  0.26518000  0.40317000  0.10657000  1.0
  N  N680  1  0.29194000  0.31886000  0.15078000  1.0
  N  N681  1  0.01514000  0.52199000  0.61879000  1.0
  N  N682  1  0.08859000  0.51768000  0.56832000  1.0
  N  N683  1  0.10998000  0.53906000  0.62535000  1.0
  N  N684  1  0.84416000  0.15844000  0.44242000  1.0
  N  N685  1  0.90776000  0.09906000  0.44306000  1.0
  N  N686  1  0.93574000  0.14242000  0.47833000  1.0
  N  N687  1  0.70225000  0.59894000  0.81035000  1.0
  N  N688  1  0.75095000  0.53631000  0.86745000  1.0
  N  N689  1  0.79646000  0.61278000  0.83274000  1.0
  N  N690  1  0.52530000  0.42421000  0.35177000  1.0
  N  N691  1  0.59280000  0.40556000  0.41572000  1.0
  N  N692  1  0.62315000  0.40723000  0.34883000  1.0
  N  N693  1  0.35547000  0.78913000  0.54972000  1.0
  N  N694  1  0.40340000  0.86358000  0.51544000  1.0
  N  N695  1  0.42641000  0.80259000  0.49367000  1.0
  N  N696  1  0.71613000  0.46005000  0.20900000  1.0
  N  N697  1  0.49414000  0.71104000  0.49585000  1.0
  N  N698  1  0.37098000  0.23496000  0.23704000  1.0
  N  N699  1  0.21103000  0.48682000  0.76110000  1.0
  N  N700  1  0.04135000  0.20486000  0.45216000  1.0
  N  N701  1  0.86404000  0.72659000  0.70038000  1.0
  N  N702  1  0.75515000  0.46121000  0.02533000  1.0
  N  N703  1  0.65630000  0.45326000  0.46683000  1.0
  N  N704  1  0.52438000  0.98550000  0.46569000  1.0
  N  N705  1  0.32529000  0.46260000  0.00849000  1.0
  N  N706  1  0.13668000  0.44268000  0.53323000  1.0
  N  N707  1  0.99713000  0.95747000  0.50185000  1.0
  N  N708  1  0.02442000  0.38499000  0.14269000  1.0
  N  N709  1  0.89149000  0.53399000  0.58073000  1.0
  N  N710  1  0.73219000  0.13631000  0.35658000  1.0
  N  N711  1  0.52190000  0.56431000  0.82266000  1.0
  N  N712  1  0.36857000  0.34427000  0.40745000  1.0
  N  N713  1  0.22556000  0.76315000  0.56905000  1.0
