# generated using pymatgen
data_Cd2H31C52N6(O7F)2
_symmetry_space_group_name_H-M   'P 1'
_cell_length_a   12.14785000
_cell_length_b   27.54440000
_cell_length_c   27.54440000
_cell_angle_alpha   98.62800000
_cell_angle_beta   91.86200000
_cell_angle_gamma   92.55000000
_symmetry_Int_Tables_number   1
_chemical_formula_structural   Cd2H31C52N6(O7F)2
_chemical_formula_sum   'Cd4 H62 C104 N12 O28 F4'
_cell_volume   9096.01596423
_cell_formula_units_Z   2
loop_
 _symmetry_equiv_pos_site_id
 _symmetry_equiv_pos_as_xyz
  1  'x, y, z'
loop_
 _atom_site_type_symbol
 _atom_site_label
 _atom_site_symmetry_multiplicity
 _atom_site_fract_x
 _atom_site_fract_y
 _atom_site_fract_z
 _atom_site_occupancy
  C  C0  1  0.23244000  0.92899000  0.05765000  1.0
  C  C1  1  0.39379000  0.08993500  0.10892000  1.0
  C  C2  1  0.48265000  0.17390500  0.96515000  1.0
  C  C3  1  0.14570000  0.09369000  0.00318500  1.0
  C  C4  1  0.38810000  0.00269500  0.94584000  1.0
  C  C5  1  0.93801000  0.05407000  0.22007000  1.0
  C  C6  1  0.78208000  0.02190000  0.07208000  1.0
  C  C7  1  0.75053000  0.15138500  0.96760000  1.0
  C  C8  1  0.98916000  0.15117500  0.08654000  1.0
  C  C9  1  0.69711000  0.16889000  0.14720500  1.0
  C  C10  1  0.53497000  0.01777000  0.78326000  1.0
  C  C11  1  0.49530000  0.02610500  0.73707000  1.0
  C  C12  1  0.51509000  0.10655000  0.63925000  1.0
  C  C13  1  0.49018000  0.09233500  0.58944500  1.0
  C  C14  1  0.48390000  0.07499000  0.28709500  1.0
  C  C15  1  0.44430000  0.08066000  0.33537500  1.0
  C  C16  1  0.47047000  0.10339500  0.45583000  1.0
  C  C17  1  0.46524000  0.09103000  0.50278500  1.0
  C  C18  1  0.63258000  0.02718500  0.31408000  1.0
  C  C19  1  0.59079000  0.03130500  0.36090000  1.0
  C  C20  1  0.44288000  0.02415000  0.44681000  1.0
  C  C21  1  0.44802000  0.04036500  0.49663500  1.0
  C  C22  1  0.65468000  0.09131500  0.79071000  1.0
  C  C23  1  0.61844000  0.09907500  0.74323500  1.0
  C  C24  1  0.49111000  0.02717000  0.62780000  1.0
  C  C25  1  0.47439000  0.04169500  0.58260500  1.0
  C  C26  1  0.62577000  0.04617000  0.80524500  1.0
  C  C27  1  0.54355000  0.06427000  0.71448500  1.0
  C  C28  1  0.57595000  0.04693500  0.27695500  1.0
  C  C29  1  0.49614000  0.05759500  0.37198500  1.0
  C  C30  1  0.48693000  0.11910000  0.54962500  1.0
  C  C31  1  0.45290000  0.01376500  0.53613000  1.0
  C  C32  1  0.67027000  0.33465500  0.01754500  1.0
  C  C33  1  0.65381000  0.38523500  0.02458000  1.0
  C  C34  1  0.62621000  0.49630000  0.11655000  1.0
  C  C35  1  0.64599000  0.54493500  0.11104000  1.0
  C  C36  1  0.49131000  0.81861500  0.10659500  1.0
  C  C37  1  0.52516000  0.77178000  0.11131000  1.0
  C  C38  1  0.62781000  0.68053000  0.13859500  1.0
  C  C39  1  0.65002000  0.63229000  0.12230000  1.0
  C  C40  1  0.68087000  0.84452000  0.09003500  1.0
  C  C41  1  0.71332000  0.79653000  0.09461000  1.0
  C  C42  1  0.71547000  0.68066500  0.07122500  1.0
  C  C43  1  0.70609000  0.63224000  0.07926500  1.0
  C  C44  1  0.69899000  0.33640500  0.10529000  1.0
  C  C45  1  0.68380000  0.38749000  0.11281000  1.0
  C  C46  1  0.71394000  0.49598500  0.04918500  1.0
  C  C47  1  0.70211000  0.54476000  0.06804000  1.0
  C  C48  1  0.71233000  0.31386500  0.05700000  1.0
  C  C49  1  0.66917000  0.41287500  0.07208000  1.0
  C  C50  1  0.57019000  0.85493500  0.09769000  1.0
  C  C51  1  0.63588000  0.76022000  0.10558500  1.0
  C  C52  1  0.61755000  0.58871500  0.13984000  1.0
  C  C53  1  0.73432000  0.58837000  0.05038000  1.0
  C  C54  1  0.41250000  0.16304000  0.17479000  1.0
  C  C55  1  0.42984000  0.08248500  0.19875000  1.0
  C  C56  1  0.41443000  0.11187500  0.16144500  1.0
  C  C57  1  0.44417000  0.10398500  0.24879000  1.0
  C  C58  1  0.43841000  0.15510000  0.26099000  1.0
  C  C59  1  0.42348000  0.18486500  0.22432500  1.0
  C  C60  1  0.16593000  0.87149000  0.11459000  1.0
  C  C61  1  0.33495000  0.85826000  0.07206000  1.0
  C  C62  1  0.23825000  0.88342000  0.07911500  1.0
  C  C63  1  0.37269000  0.82963500  0.10617500  1.0
  C  C64  1  0.30076000  0.81728000  0.14183000  1.0
  C  C65  1  0.19511000  0.83687000  0.14510000  1.0
  C  C66  1  0.35511000  0.93302000  0.87589000  1.0
  C  C67  1  0.46106000  0.00586500  0.86369000  1.0
  C  C68  1  0.40424000  0.97930500  0.89494000  1.0
  C  C69  1  0.47292000  0.98692000  0.81392000  1.0
  C  C70  1  0.42397000  0.94060500  0.79508000  1.0
  C  C71  1  0.36493000  0.91327500  0.82600500  1.0
  C  C72  1  0.53825000  0.22523000  0.89995000  1.0
  C  C73  1  0.56160000  0.25816500  0.98573000  1.0
  C  C74  1  0.52585000  0.21972500  0.94924500  1.0
  C  C75  1  0.62080000  0.29992000  0.97510000  1.0
  C  C76  1  0.63487000  0.30523000  0.92587000  1.0
  C  C77  1  0.59305000  0.26804000  0.88789500  1.0
  C  C78  1  0.82690000  0.19692000  0.90238000  1.0
  C  C79  1  0.69578000  0.12872500  0.87887500  1.0
  C  C80  1  0.75579000  0.16013500  0.91580000  1.0
  C  C81  1  0.71218000  0.12996500  0.82838000  1.0
  C  C82  1  0.78305000  0.16728000  0.81566000  1.0
  C  C83  1  0.83922000  0.20142000  0.85251000  1.0
  C  C84  1  0.70279000  0.24021000  0.21565000  1.0
  C  C85  1  0.66370000  0.25370500  0.13264500  1.0
  C  C86  1  0.67742000  0.22098000  0.16632500  1.0
  C  C87  1  0.69272000  0.30455000  0.14515000  1.0
  C  C88  1  0.71759000  0.32305500  0.19486000  1.0
  C  C89  1  0.71961000  0.29134000  0.23048500  1.0
  C  C90  1  0.93487000  0.97741500  0.25867000  1.0
  C  C91  1  0.81837000  0.04368500  0.28697500  1.0
  C  C92  1  0.90697000  0.02644500  0.25959000  1.0
  C  C93  1  0.74501000  0.01094000  0.30495000  1.0
  C  C94  1  0.77290000  0.96215000  0.30496000  1.0
  C  C95  1  0.87053000  0.94544500  0.28311000  1.0
  C  C96  1  0.87643000  0.95158000  0.02543000  1.0
  C  C97  1  0.74174000  0.93350500  0.08401000  1.0
  C  C98  1  0.79908000  0.96820500  0.06001500  1.0
  C  C99  1  0.75633000  0.88226500  0.07173000  1.0
  C  C100  1  0.83595000  0.86712000  0.03741500  1.0
  C  C101  1  0.89699000  0.90138500  0.01471000  1.0
  C  C102  1  0.05644000  0.12806500  0.00178500  1.0
  C  C103  1  0.06575000  0.16620500  0.04983500  1.0
  Cd  Cd104  1  0.25390000  0.01026000  0.03696000  1.0
  Cd  Cd105  1  0.40311000  0.10238000  0.99850000  1.0
  Cd  Cd106  1  0.87723000  0.09047500  0.14874500  1.0
  Cd  Cd107  1  0.76872000  0.12614500  0.05037500  1.0
  F  F108  1  0.95658000  0.10146500  0.99570500  1.0
  F  F109  1  0.17184000  0.17157500  0.07085000  1.0
  F  F110  1  0.06892000  0.15240000  0.96158500  1.0
  F  F111  1  0.03788000  0.21177000  0.03894500  1.0
  H  H112  1  0.42545000  0.00389500  0.71935000  1.0
  H  H113  1  0.37447000  0.10289000  0.34451500  1.0
  H  H114  1  0.63551000  0.01666000  0.38968500  1.0
  H  H115  1  0.64793000  0.13152000  0.72911500  1.0
  H  H116  1  0.66345000  0.03619000  0.83831000  1.0
  H  H117  1  0.61048000  0.04426000  0.24087500  1.0
  H  H118  1  0.50446000  0.15842500  0.55448000  1.0
  H  H119  1  0.44474000  0.97401000  0.53088000  1.0
  H  H120  1  0.62530000  0.40258000  0.99406000  1.0
  H  H121  1  0.46412000  0.74339000  0.11657000  1.0
  H  H122  1  0.79806000  0.78705500  0.08952000  1.0
  H  H123  1  0.68380000  0.40741500  0.14963000  1.0
  H  H124  1  0.73863000  0.27652500  0.04967000  1.0
  H  H125  1  0.54287000  0.89103500  0.09382500  1.0
  H  H126  1  0.57152000  0.58884000  0.17284000  1.0
  H  H127  1  0.77588000  0.58813000  0.01619500  1.0
  H  H128  1  0.45093000  0.17232000  0.29892500  1.0
  H  H129  1  0.40004000  0.18606000  0.14663500  1.0
  H  H130  1  0.43376000  0.04304500  0.18878500  1.0
  H  H131  1  0.42229000  0.25483500  0.20779500  1.0
  H  H132  1  0.48163000  0.24943000  0.26311500  1.0
  H  H133  1  0.35060000  0.24423500  0.25638500  1.0
  H  H134  1  0.32806000  0.79431000  0.16806500  1.0
  H  H135  1  0.09024000  0.89059000  0.12030000  1.0
  H  H136  1  0.38842000  0.86574500  0.04301000  1.0
  H  H137  1  0.11251000  0.85626500  0.20603500  1.0
  H  H138  1  0.14888000  0.79763500  0.19911500  1.0
  H  H139  1  0.04433000  0.81762500  0.16621500  1.0
  H  H140  1  0.43222000  0.92575000  0.75674500  1.0
  H  H141  1  0.30877000  0.91233000  0.89959000  1.0
  H  H142  1  0.49244000  0.04278000  0.87798000  1.0
  H  H143  1  0.34108000  0.84109000  0.82814500  1.0
  H  H144  1  0.32794000  0.85570500  0.77091500  1.0
  H  H145  1  0.23238000  0.86645500  0.81379000  1.0
  H  H146  1  0.68030000  0.33730500  0.91710500  1.0
  H  H147  1  0.50929000  0.19577500  0.87119000  1.0
  H  H148  1  0.54551000  0.25486500  0.02356000  1.0
  H  H149  1  0.65101000  0.30406500  0.83131000  1.0
  H  H150  1  0.79634000  0.16954000  0.77739500  1.0
  H  H151  1  0.87335000  0.22207000  0.93049500  1.0
  H  H152  1  0.63693000  0.10255000  0.89018000  1.0
  H  H153  1  0.98709000  0.23724500  0.85485000  1.0
  H  H154  1  0.88703000  0.27268000  0.85762500  1.0
  H  H155  1  0.91191000  0.23955000  0.80274000  1.0
  H  H156  1  0.73831000  0.36177500  0.20613500  1.0
  H  H157  1  0.71355000  0.21533000  0.24221500  1.0
  H  H158  1  0.63846000  0.23825500  0.09544500  1.0
  H  H159  1  0.75650000  0.34781500  0.28940000  1.0
  H  H160  1  0.71633000  0.93675000  0.31923500  1.0
  H  H161  1  0.00203000  0.96327000  0.23665500  1.0
  H  H162  1  0.79470000  0.08123000  0.28714500  1.0
  H  H163  1  0.88620000  0.87849000  0.24543500  1.0
  H  H164  1  0.85173000  0.87735000  0.30353500  1.0
  H  H165  1  0.98053000  0.89345500  0.28749500  1.0
  H  H166  1  0.84870000  0.82843000  0.02657500  1.0
  H  H167  1  0.92269000  0.97781000  0.00739000  1.0
  H  H168  1  0.68400000  0.94659000  0.11151000  1.0
  H  H169  1  0.93964000  0.86092500  0.95214500  1.0
  H  H170  1  0.02981000  0.86300500  0.99564500  1.0
  H  H171  1  0.01875000  0.91306500  0.96743000  1.0
  H  H172  1  0.58097000  0.24541500  0.81158000  1.0
  H  H173  1  0.74582000  0.28713000  0.30544500  1.0
  N  N174  1  0.51597000  0.06660000  0.66316500  1.0
  N  N175  1  0.45835000  0.06235500  0.42146000  1.0
  N  N176  1  0.66771000  0.46597500  0.07873500  1.0
  N  N177  1  0.66618000  0.71036000  0.10715500  1.0
  N  N178  1  0.42057000  0.23441500  0.23687000  1.0
  N  N179  1  0.12543000  0.82567500  0.17984000  1.0
  N  N180  1  0.31696000  0.86840500  0.80805500  1.0
  N  N181  1  0.60898000  0.27289500  0.84025000  1.0
  N  N182  1  0.90678000  0.23794000  0.84027500  1.0
  N  N183  1  0.74255000  0.30999500  0.27843500  1.0
  N  N184  1  0.89651000  0.89774500  0.28110000  1.0
  N  N185  1  0.97369000  0.88569500  0.98185000  1.0
  O  O186  1  0.13162000  0.05415000  0.02425500  1.0
  O  O187  1  0.24203000  0.11115500  0.99239000  1.0
  O  O188  1  0.46007000  0.03673500  0.96761000  1.0
  O  O189  1  0.29200000  0.99645500  0.96467000  1.0
  O  O190  1  0.14996000  0.95864000  0.06223500  1.0
  O  O191  1  0.32148000  0.94703500  0.03988500  1.0
  O  O192  1  0.33494000  0.04841000  0.09872000  1.0
  O  O193  1  0.42411000  0.11496000  0.07410000  1.0
  O  O194  1  0.41934000  0.14010500  0.93812500  1.0
  O  O195  1  0.50415000  0.16417500  0.00938000  1.0
  O  O196  1  0.00116000  0.11070000  0.10538500  1.0
  O  O197  1  0.89249000  0.16901000  0.08633000  1.0
  O  O198  1  0.65911000  0.15018000  0.10233000  1.0
  O  O199  1  0.78349000  0.15088500  0.16737500  1.0
  O  O200  1  0.93952000  0.03100500  0.17511500  1.0
  O  O201  1  0.91426000  0.10029000  0.22235000  1.0
  O  O202  1  0.75873000  0.04030500  0.11671000  1.0
  O  O203  1  0.81350000  0.05263500  0.04241000  1.0
  O  O204  1  0.68706000  0.11686500  0.98196000  1.0
  O  O205  1  0.81914000  0.17314500  0.00218000  1.0
  O  O206  1  0.44096000  0.97769500  0.42663000  1.0
  O  O207  1  0.49463000  0.98107500  0.63483500  1.0
  O  O208  1  0.53356000  0.15224000  0.66065500  1.0
  O  O209  1  0.50341000  0.14683500  0.44596000  1.0
  O  O210  1  0.75171000  0.69511500  0.03101000  1.0
  O  O211  1  0.76737000  0.48050000  0.00952500  1.0
  O  O212  1  0.56963000  0.48123500  0.15182500  1.0
  O  O213  1  0.56988000  0.69538000  0.17705000  1.0
