# generated using pymatgen
data_Zn4H15C40(BrO4)5
_symmetry_space_group_name_H-M   'P 1'
_cell_length_a   26.36030000
_cell_length_b   31.12910000
_cell_length_c   31.12910000
_cell_angle_alpha   89.99900000
_cell_angle_beta   89.99900000
_cell_angle_gamma   90.00100000
_symmetry_Int_Tables_number   1
_chemical_formula_structural   Zn4H15C40(BrO4)5
_chemical_formula_sum   'Zn32 H120 C320 Br40 O160'
_cell_volume   25543.68074370
_cell_formula_units_Z   8
loop_
 _symmetry_equiv_pos_site_id
 _symmetry_equiv_pos_as_xyz
  1  'x, y, z'
loop_
 _atom_site_type_symbol
 _atom_site_label
 _atom_site_symmetry_multiplicity
 _atom_site_fract_x
 _atom_site_fract_y
 _atom_site_fract_z
 _atom_site_occupancy
  Zn  Zn0  1  0.77889000  0.94665000  0.27684000  1.0
  Zn  Zn1  1  0.83047000  0.85493000  0.25079000  1.0
  Zn  Zn2  1  0.27355000  0.27507000  0.49149000  1.0
  Zn  Zn3  1  0.32544000  0.25054000  0.58266000  1.0
  Zn  Zn4  1  0.76671000  0.48950000  0.18355000  1.0
  Zn  Zn5  1  0.82100000  0.57945000  0.21049000  1.0
  Zn  Zn6  1  0.27947000  0.17406000  0.94412000  1.0
  Zn  Zn7  1  0.33175000  0.20255000  0.85430000  1.0
  Zn  Zn8  1  0.16167000  0.49763000  0.25490000  1.0
  Zn  Zn9  1  0.10643000  0.58089000  0.22871000  1.0
  Zn  Zn10  1  0.68110000  0.24810000  0.95698000  1.0
  Zn  Zn11  1  0.63850000  0.21649000  0.86569000  1.0
  Zn  Zn12  1  0.16811000  0.94587000  0.17614000  1.0
  Zn  Zn13  1  0.11462000  0.85355000  0.19785000  1.0
  Zn  Zn14  1  0.67054000  0.18902000  0.49922000  1.0
  Zn  Zn15  1  0.61459000  0.22702000  0.58286000  1.0
  Zn  Zn16  1  0.17551000  0.99050000  0.66928000  1.0
  Zn  Zn17  1  0.12241000  0.07701000  0.69850000  1.0
  Zn  Zn18  1  0.66359000  0.67537000  0.45612000  1.0
  Zn  Zn19  1  0.61523000  0.70436000  0.36415000  1.0
  Zn  Zn20  1  0.17536000  0.45748000  0.77132000  1.0
  Zn  Zn21  1  0.12073000  0.36986000  0.74642000  1.0
  Zn  Zn22  1  0.68043000  0.76755000  0.99660000  1.0
  Zn  Zn23  1  0.62586000  0.74439000  0.08777000  1.0
  Zn  Zn24  1  0.83504000  0.36589000  0.71223000  1.0
  Zn  Zn25  1  0.77724000  0.45221000  0.69038000  1.0
  Zn  Zn26  1  0.28598000  0.68650000  0.00365000  1.0
  Zn  Zn27  1  0.33939000  0.72737000  0.08131000  1.0
  Zn  Zn28  1  0.78120000  0.98956000  0.76347000  1.0
  Zn  Zn29  1  0.83616000  0.07819000  0.74064000  1.0
  Zn  Zn30  1  0.26679000  0.74995000  0.44412000  1.0
  Zn  Zn31  1  0.32309000  0.71342000  0.35950000  1.0
  H  H32  1  0.72573000  0.04689000  0.40927000  1.0
  H  H33  1  0.74425000  0.08109000  0.27592000  1.0
  H  H34  1  0.70414000  0.17769000  0.36765000  1.0
  H  H35  1  0.24188000  0.40622000  0.38589000  1.0
  H  H36  1  0.19499000  0.36387000  0.26008000  1.0
  H  H37  1  0.22807000  0.27120000  0.35780000  1.0
  H  H38  1  0.73484000  0.38585000  0.05149000  1.0
  H  H39  1  0.68643000  0.26035000  0.09326000  1.0
  H  H40  1  0.71766000  0.35819000  0.18631000  1.0
  H  H41  1  0.21193000  0.04374000  0.04380000  1.0
  H  H42  1  0.25934000  0.17125000  0.07965000  1.0
  H  H43  1  0.21444000  0.08151000  0.17696000  1.0
  H  H44  1  0.22222000  0.89190000  0.53436000  1.0
  H  H45  1  0.20011000  0.85731000  0.66718000  1.0
  H  H46  1  0.23291000  0.75968000  0.57455000  1.0
  H  H47  1  0.74229000  0.54954000  0.55683000  1.0
  H  H48  1  0.67150000  0.66969000  0.59058000  1.0
  H  H49  1  0.71521000  0.58160000  0.68953000  1.0
  H  H50  1  0.22592000  0.54926000  0.90705000  1.0
  H  H51  1  0.26617000  0.67895000  0.87271000  1.0
  H  H52  1  0.22180000  0.59028000  0.77468000  1.0
  H  H53  1  0.74219000  0.89172000  0.89280000  1.0
  H  H54  1  0.69797000  0.76274000  0.85968000  1.0
  H  H55  1  0.74008000  0.85160000  0.76044000  1.0
  H  H56  1  0.73022000  0.79475000  0.34119000  1.0
  H  H57  1  0.78611000  0.90469000  0.41030000  1.0
  H  H58  1  0.72477000  0.79740000  0.47954000  1.0
  H  H59  1  0.22902000  0.34037000  0.64626000  1.0
  H  H60  1  0.21566000  0.47826000  0.64130000  1.0
  H  H61  1  0.26972000  0.40916000  0.53121000  1.0
  H  H62  1  0.73124000  0.64585000  0.11803000  1.0
  H  H63  1  0.72563000  0.64065000  0.97981000  1.0
  H  H64  1  0.77391000  0.53022000  0.05139000  1.0
  H  H65  1  0.23327000  0.10726000  0.78928000  1.0
  H  H66  1  0.23881000  0.96885000  0.79427000  1.0
  H  H67  1  0.29471000  0.04328000  0.90018000  1.0
  H  H68  1  0.20241000  0.63462000  0.32894000  1.0
  H  H69  1  0.18935000  0.63069000  0.46676000  1.0
  H  H70  1  0.11565000  0.53462000  0.38987000  1.0
  H  H71  1  0.72660000  0.32115000  0.80278000  1.0
  H  H72  1  0.70638000  0.45850000  0.81154000  1.0
  H  H73  1  0.65592000  0.37731000  0.91416000  1.0
  H  H74  1  0.21053000  0.80427000  0.10531000  1.0
  H  H75  1  0.22752000  0.81164000  0.96790000  1.0
  H  H76  1  0.14705000  0.91067000  0.03575000  1.0
  H  H77  1  0.72773000  0.12314000  0.64706000  1.0
  H  H78  1  0.68013000  0.99160000  0.66365000  1.0
  H  H79  1  0.61191000  0.06928000  0.56607000  1.0
  H  H80  1  0.21631000  0.14928000  0.61042000  1.0
  H  H81  1  0.22694000  0.14961000  0.47217000  1.0
  H  H82  1  0.17132000  0.03795000  0.53750000  1.0
  H  H83  1  0.70854000  0.60844000  0.30260000  1.0
  H  H84  1  0.71279000  0.47021000  0.30985000  1.0
  H  H85  1  0.65113000  0.54323000  0.41442000  1.0
  H  H86  1  0.22222000  0.30185000  0.83124000  1.0
  H  H87  1  0.22943000  0.29913000  0.96957000  1.0
  H  H88  1  0.17606000  0.41218000  0.90504000  1.0
  H  H89  1  0.72520000  0.83053000  0.14930000  1.0
  H  H90  1  0.67807000  0.90354000  0.03884000  1.0
  H  H91  1  0.73031000  0.96885000  0.15188000  1.0
  H  H92  1  0.73564000  0.30633000  0.61441000  1.0
  H  H93  1  0.74385000  0.31260000  0.47624000  1.0
  H  H94  1  0.80849000  0.41350000  0.55295000  1.0
  H  H95  1  0.23777000  0.57779000  0.11308000  1.0
  H  H96  1  0.22433000  0.61792000  0.24541000  1.0
  H  H97  1  0.28771000  0.70348000  0.15327000  1.0
  H  H98  1  0.75723000  0.13516000  0.84264000  1.0
  H  H99  1  0.75518000  0.12498000  0.98049000  1.0
  H  H100  1  0.81052000  0.02003000  0.90375000  1.0
  H  H101  1  0.23061000  0.81239000  0.28487000  1.0
  H  H102  1  0.24345000  0.95063000  0.29094000  1.0
  H  H103  1  0.30038000  0.87361000  0.39395000  1.0
  H  H104  1  0.85805000  0.71484000  0.24454000  1.0
  H  H105  1  0.98499000  0.63696000  0.28481000  1.0
  H  H106  1  0.99499000  0.77359000  0.29276000  1.0
  H  H107  1  0.36351000  0.23839000  0.72028000  1.0
  H  H108  1  0.46468000  0.33190000  0.66406000  1.0
  H  H109  1  0.46225000  0.31531000  0.79994000  1.0
  H  H110  1  0.07566000  0.71589000  0.19919000  1.0
  H  H111  1  0.94352000  0.78385000  0.15368000  1.0
  H  H112  1  0.94319000  0.64673000  0.15584000  1.0
  H  H113  1  0.57413000  0.20439000  0.73650000  1.0
  H  H114  1  0.68457000  0.24580000  0.64424000  1.0
  H  H115  1  0.72712000  0.15720000  0.74250000  1.0
  H  H116  1  0.08972000  0.20665000  0.71716000  1.0
  H  H117  1  0.11613000  0.28372000  0.82911000  1.0
  H  H118  1  0.08329000  0.14995000  0.84378000  1.0
  H  H119  1  0.57846000  0.73141000  0.22728000  1.0
  H  H120  1  0.51082000  0.84204000  0.16607000  1.0
  H  H121  1  0.52189000  0.83818000  0.30221000  1.0
  H  H122  1  0.86842000  0.23905000  0.72352000  1.0
  H  H123  1  0.95854000  0.29068000  0.82713000  1.0
  H  H124  1  0.92238000  0.15649000  0.82336000  1.0
  H  H125  1  0.37880000  0.70948000  0.20218000  1.0
  H  H126  1  0.39700000  0.77139000  0.32414000  1.0
  H  H127  1  0.37444000  0.84753000  0.21034000  1.0
  H  H128  1  0.97396000  0.90302000  0.22816000  1.0
  H  H129  1  0.05515000  0.02299000  0.21954000  1.0
  H  H130  1  0.90372000  0.02163000  0.26816000  1.0
  H  H131  1  0.47268000  0.23568000  0.53447000  1.0
  H  H132  1  0.55066000  0.21541000  0.41428000  1.0
  H  H133  1  0.39493000  0.25404000  0.41415000  1.0
  H  H134  1  0.96458000  0.53147000  0.21968000  1.0
  H  H135  1  0.89272000  0.41270000  0.18313000  1.0
  H  H136  1  0.05272000  0.41571000  0.20594000  1.0
  H  H137  1  0.48296000  0.20832000  0.90276000  1.0
  H  H138  1  0.55876000  0.21147000  0.02574000  1.0
  H  H139  1  0.40035000  0.18498000  0.02034000  1.0
  H  H140  1  0.97649000  0.02956000  0.71427000  1.0
  H  H141  1  0.89618000  0.90902000  0.71936000  1.0
  H  H142  1  0.05173000  0.91144000  0.68018000  1.0
  H  H143  1  0.46491000  0.71201000  0.40946000  1.0
  H  H144  1  0.38522000  0.73045000  0.52919000  1.0
  H  H145  1  0.54419000  0.70402000  0.53024000  1.0
  H  H146  1  0.97619000  0.41672000  0.73220000  1.0
  H  H147  1  0.89406000  0.53614000  0.72385000  1.0
  H  H148  1  0.04958000  0.53645000  0.76331000  1.0
  H  H149  1  0.47969000  0.73873000  0.03779000  1.0
  H  H150  1  0.56336000  0.73546000  0.91899000  1.0
  H  H151  1  0.40597000  0.70093000  0.92027000  1.0
  C  C152  1  0.77563000  0.87109000  0.33031000  1.0
  C  C153  1  0.88527000  0.93606000  0.25777000  1.0
  C  C154  1  0.75549000  0.89781000  0.19843000  1.0
  C  C155  1  0.75230000  0.01397000  0.33135000  1.0
  C  C156  1  0.90008000  0.79270000  0.26674000  1.0
  C  C157  1  0.26830000  0.32943000  0.56652000  1.0
  C  C158  1  0.38030000  0.25554000  0.50096000  1.0
  C  C159  1  0.24990000  0.19724000  0.54247000  1.0
  C  C160  1  0.25414000  0.32708000  0.42135000  1.0
  C  C161  1  0.39083000  0.27538000  0.64330000  1.0
  C  C162  1  0.76754000  0.56639000  0.13067000  1.0
  C  C163  1  0.87364000  0.49756000  0.19947000  1.0
  C  C164  1  0.74237000  0.53799000  0.26068000  1.0
  C  C165  1  0.74625000  0.42103000  0.13044000  1.0
  C  C166  1  0.88990000  0.63111000  0.25330000  1.0
  C  C167  1  0.27830000  0.12204000  0.86599000  1.0
  C  C168  1  0.38738000  0.19170000  0.93414000  1.0
  C  C169  1  0.25434000  0.25287000  0.89867000  1.0
  C  C170  1  0.24888000  0.11816000  0.01060000  1.0
  C  C171  1  0.38844000  0.25539000  0.80430000  1.0
  C  C172  1  0.14546000  0.56550000  0.31183000  1.0
  C  C173  1  0.05995000  0.50111000  0.22552000  1.0
  C  C174  1  0.19558000  0.55688000  0.19187000  1.0
  C  C175  1  0.20917000  0.43614000  0.30825000  1.0
  C  C176  1  0.03743000  0.63465000  0.18813000  1.0
  C  C177  1  0.68121000  0.30098000  0.87903000  1.0
  C  C178  1  0.57609000  0.22001000  0.94044000  1.0
  C  C179  1  0.72053000  0.17405000  0.91330000  1.0
  C  C180  1  0.70377000  0.30844000  0.02157000  1.0
  C  C181  1  0.64132000  0.16865000  0.78957000  1.0
  C  C182  1  0.15925000  0.87628000  0.11585000  1.0
  C  C183  1  0.06506000  0.93694000  0.20608000  1.0
  C  C184  1  0.20111000  0.88646000  0.24431000  1.0
  C  C185  1  0.18961000  0.01524000  0.12382000  1.0
  C  C186  1  0.03958000  0.79668000  0.18123000  1.0
  C  C187  1  0.66111000  0.14281000  0.58199000  1.0
  C  C188  1  0.56496000  0.21577000  0.50114000  1.0
  C  C189  1  0.70242000  0.26685000  0.54229000  1.0
  C  C190  1  0.69857000  0.12637000  0.43809000  1.0
  C  C191  1  0.58512000  0.25281000  0.66682000  1.0
  C  C192  1  0.17581000  0.06945000  0.61844000  1.0
  C  C193  1  0.06787000  0.99762000  0.68971000  1.0
  C  C194  1  0.20364000  0.03568000  0.74631000  1.0
  C  C195  1  0.19778000  0.92500000  0.61229000  1.0
  C  C196  1  0.08245000  0.13047000  0.75830000  1.0
  C  C197  1  0.66352000  0.62222000  0.37901000  1.0
  C  C198  1  0.55819000  0.69894000  0.44366000  1.0
  C  C199  1  0.69529000  0.75075000  0.40985000  1.0
  C  C200  1  0.69945000  0.62073000  0.52198000  1.0
  C  C201  1  0.56764000  0.76100000  0.31074000  1.0
  C  C202  1  0.18067000  0.38117000  0.82384000  1.0
  C  C203  1  0.06710000  0.45022000  0.75556000  1.0
  C  C204  1  0.19530000  0.40926000  0.69185000  1.0
  C  C205  1  0.20167000  0.52228000  0.82661000  1.0
  C  C206  1  0.11880000  0.28469000  0.74299000  1.0
  C  C207  1  0.68385000  0.82248000  0.07085000  1.0
  C  C208  1  0.57375000  0.74870000  0.00537000  1.0
  C  C209  1  0.70149000  0.69088000  0.04848000  1.0
  C  C210  1  0.70631000  0.81812000  0.92712000  1.0
  C  C211  1  0.55842000  0.76802000  0.14768000  1.0
  C  C212  1  0.88319000  0.44932000  0.71438000  1.0
  C  C213  1  0.78636000  0.37944000  0.63113000  1.0
  C  C214  1  0.74973000  0.39676000  0.76208000  1.0
  C  C215  1  0.90046000  0.31336000  0.75755000  1.0
  C  C216  1  0.75549000  0.52000000  0.63774000  1.0
  C  C217  1  0.28983000  0.65074000  0.08569000  1.0
  C  C218  1  0.38975000  0.71534000  0.00555000  1.0
  C  C219  1  0.25578000  0.76540000  0.03891000  1.0
  C  C220  1  0.25921000  0.62489000  0.94079000  1.0
  C  C221  1  0.36372000  0.77931000  0.15409000  1.0
  C  C222  1  0.79466000  0.05735000  0.82526000  1.0
  C  C223  1  0.88439000  0.99522000  0.73208000  1.0
  C  C224  1  0.74637000  0.05036000  0.69574000  1.0
  C  C225  1  0.76409000  0.91872000  0.81279000  1.0
  C  C226  1  0.85846000  0.16153000  0.75625000  1.0
  C  C227  1  0.27650000  0.79622000  0.36164000  1.0
  C  C228  1  0.37146000  0.72686000  0.44247000  1.0
  C  C229  1  0.23526000  0.67341000  0.40073000  1.0
  C  C230  1  0.24342000  0.81172000  0.50522000  1.0
  C  C231  1  0.38703000  0.69275000  0.28469000  1.0
  C  C232  1  0.72410000  0.13246000  0.31855000  1.0
  C  C233  1  0.71343000  0.14448000  0.36085000  1.0
  C  C234  1  0.73676000  0.05856000  0.34141000  1.0
  C  C235  1  0.71335000  0.11373000  0.39391000  1.0
  C  C236  1  0.72529000  0.07077000  0.38394000  1.0
  C  C237  1  0.73544000  0.08971000  0.30880000  1.0
  C  C238  1  0.21088000  0.31427000  0.30596000  1.0
  C  C239  1  0.22531000  0.30453000  0.34807000  1.0
  C  C240  1  0.21790000  0.39076000  0.32126000  1.0
  C  C241  1  0.23705000  0.33751000  0.37715000  1.0
  C  C242  1  0.23351000  0.38060000  0.36342000  1.0
  C  C243  1  0.20714000  0.35707000  0.29261000  1.0
  C  C244  1  0.70101000  0.30632000  0.14313000  1.0
  C  C245  1  0.71556000  0.34838000  0.15297000  1.0
  C  C246  1  0.71015000  0.32151000  0.06690000  1.0
  C  C247  1  0.72839000  0.37724000  0.12004000  1.0
  C  C248  1  0.72548000  0.36359000  0.07707000  1.0
  C  C249  1  0.69852000  0.29285000  0.10033000  1.0
  C  C250  1  0.23772000  0.12958000  0.13148000  1.0
  C  C251  1  0.22076000  0.08867000  0.14333000  1.0
  C  C252  1  0.23686000  0.10862000  0.05615000  1.0
  C  C253  1  0.21064000  0.05762000  0.11182000  1.0
  C  C254  1  0.21905000  0.06776000  0.06827000  1.0
  C  C255  1  0.24548000  0.13961000  0.08814000  1.0
  C  C256  1  0.21630000  0.80533000  0.62414000  1.0
  C  C257  1  0.22620000  0.79325000  0.58176000  1.0
  C  C258  1  0.20988000  0.87998000  0.60190000  1.0
  C  C259  1  0.22903000  0.82441000  0.54917000  1.0
  C  C260  1  0.22054000  0.86775000  0.55941000  1.0
  C  C261  1  0.20846000  0.84853000  0.63425000  1.0
  C  C262  1  0.69181000  0.62868000  0.64318000  1.0
  C  C263  1  0.71294000  0.58945000  0.65568000  1.0
  C  C264  1  0.70651000  0.61085000  0.56808000  1.0
  C  C265  1  0.73182000  0.56089000  0.62468000  1.0
  C  C266  1  0.72845000  0.57177000  0.58093000  1.0
  C  C267  1  0.68878000  0.63945000  0.59965000  1.0
  C  C268  1  0.24482000  0.63781000  0.82058000  1.0
  C  C269  1  0.22910000  0.59677000  0.80830000  1.0
  C  C270  1  0.24731000  0.61508000  0.89540000  1.0
  C  C271  1  0.22152000  0.56471000  0.83935000  1.0
  C  C272  1  0.23118000  0.57394000  0.88290000  1.0
  C  C273  1  0.25355000  0.64703000  0.86388000  1.0
  C  C274  1  0.71831000  0.80378000  0.80684000  1.0
  C  C275  1  0.73404000  0.84483000  0.79419000  1.0
  C  C276  1  0.71891000  0.82625000  0.88165000  1.0
  C  C277  1  0.74357000  0.87650000  0.82518000  1.0
  C  C278  1  0.73562000  0.86709000  0.86880000  1.0
  C  C279  1  0.71109000  0.79439000  0.85041000  1.0
  C  C280  1  0.75697000  0.85305000  0.44909000  1.0
  C  C281  1  0.73508000  0.81208000  0.44921000  1.0
  C  C282  1  0.76000000  0.85177000  0.37119000  1.0
  C  C283  1  0.72446000  0.79110000  0.41028000  1.0
  C  C284  1  0.73781000  0.81088000  0.37140000  1.0
  C  C285  1  0.76887000  0.87309000  0.41014000  1.0
  C  C286  1  0.24352000  0.44774000  0.58405000  1.0
  C  C287  1  0.25573000  0.40890000  0.56393000  1.0
  C  C288  1  0.21982000  0.40928000  0.64907000  1.0
  C  C289  1  0.25150000  0.37004000  0.58645000  1.0
  C  C290  1  0.23323000  0.37040000  0.62897000  1.0
  C  C291  1  0.22605000  0.44800000  0.62652000  1.0
  C  C292  1  0.75107000  0.58323000  0.01148000  1.0
  C  C293  1  0.76048000  0.56311000  0.05087000  1.0
  C  C294  1  0.72606000  0.64843000  0.04894000  1.0
  C  C295  1  0.75411000  0.58592000  0.08935000  1.0
  C  C296  1  0.73693000  0.62847000  0.08821000  1.0
  C  C297  1  0.73417000  0.62584000  0.01046000  1.0
  C  C298  1  0.26860000  0.00212000  0.84927000  1.0
  C  C299  1  0.27740000  0.04201000  0.86863000  1.0
  C  C300  1  0.23287000  0.03775000  0.78674000  1.0
  C  C301  1  0.26548000  0.08012000  0.84679000  1.0
  C  C302  1  0.24323000  0.07782000  0.80588000  1.0
  C  C303  1  0.24665000  0.99996000  0.80839000  1.0
  C  C304  1  0.14999000  0.58088000  0.43229000  1.0
  C  C305  1  0.13891000  0.56324000  0.39198000  1.0
  C  C306  1  0.19994000  0.63689000  0.39813000  1.0
  C  C307  1  0.15707000  0.58304000  0.35453000  1.0
  C  C308  1  0.18757000  0.61973000  0.35784000  1.0
  C  C309  1  0.18017000  0.61778000  0.43538000  1.0
  C  C310  1  0.67895000  0.42152000  0.86489000  1.0
  C  C311  1  0.67382000  0.38065000  0.88300000  1.0
  C  C312  1  0.71980000  0.39058000  0.80201000  1.0
  C  C313  1  0.69018000  0.34413000  0.86053000  1.0
  C  C314  1  0.71317000  0.34923000  0.81995000  1.0
  C  C315  1  0.70153000  0.42647000  0.82454000  1.0
  C  C316  1  0.18534000  0.86293000  0.99743000  1.0
  C  C317  1  0.16764000  0.88055000  0.03601000  1.0
  C  C318  1  0.22276000  0.80338000  0.03688000  1.0
  C  C319  1  0.17604000  0.85881000  0.07476000  1.0
  C  C320  1  0.20326000  0.82036000  0.07500000  1.0
  C  C321  1  0.21281000  0.82438000  0.99779000  1.0
  C  C322  1  0.64321000  0.02696000  0.61370000  1.0
  C  C323  1  0.63894000  0.06612000  0.59212000  1.0
  C  C324  1  0.70863000  0.05687000  0.66039000  1.0
  C  C325  1  0.66864000  0.10132000  0.60442000  1.0
  C  C326  1  0.70386000  0.09647000  0.63832000  1.0
  C  C327  1  0.67747000  0.02242000  0.64768000  1.0
  C  C328  1  0.19808000  0.09185000  0.50075000  1.0
  C  C329  1  0.18609000  0.07041000  0.53888000  1.0
  C  C330  1  0.22434000  0.15482000  0.54150000  1.0
  C  C331  1  0.19166000  0.09121000  0.57854000  1.0
  C  C332  1  0.21104000  0.13340000  0.57975000  1.0
  C  C333  1  0.21675000  0.13390000  0.50200000  1.0
  C  C334  1  0.68036000  0.50266000  0.36426000  1.0
  C  C335  1  0.66843000  0.54230000  0.38286000  1.0
  C  C336  1  0.71371000  0.53921000  0.30129000  1.0
  C  C337  1  0.67770000  0.58055000  0.36034000  1.0
  C  C338  1  0.70043000  0.57884000  0.31965000  1.0
  C  C339  1  0.70263000  0.50106000  0.32348000  1.0
  C  C340  1  0.20181000  0.35761000  0.94141000  1.0
  C  C341  1  0.19102000  0.37980000  0.90341000  1.0
  C  C342  1  0.22875000  0.29523000  0.90017000  1.0
  C  C343  1  0.19750000  0.35962000  0.86355000  1.0
  C  C344  1  0.21663000  0.31738000  0.86206000  1.0
  C  C345  1  0.22021000  0.31547000  0.93985000  1.0
  C  C346  1  0.70327000  0.94036000  0.09335000  1.0
  C  C347  1  0.72173000  0.93902000  0.13552000  1.0
  C  C348  1  0.70035000  0.86253000  0.09153000  1.0
  C  C349  1  0.73070000  0.89939000  0.15582000  1.0
  C  C350  1  0.71930000  0.86129000  0.13371000  1.0
  C  C351  1  0.69318000  0.90221000  0.07118000  1.0
  C  C352  1  0.77854000  0.36494000  0.51064000  1.0
  C  C353  1  0.78851000  0.38315000  0.55094000  1.0
  C  C354  1  0.73613000  0.30468000  0.54492000  1.0
  C  C355  1  0.77385000  0.36168000  0.58852000  1.0
  C  C356  1  0.74779000  0.32249000  0.58533000  1.0
  C  C357  1  0.75269000  0.32571000  0.50760000  1.0
  C  C358  1  0.25691000  0.66369000  0.20255000  1.0
  C  C359  1  0.27258000  0.67209000  0.16068000  1.0
  C  C360  1  0.22956000  0.59255000  0.18089000  1.0
  C  C361  1  0.26774000  0.64082000  0.12825000  1.0
  C  C362  1  0.24430000  0.60132000  0.13812000  1.0
  C  C363  1  0.23719000  0.62363000  0.21288000  1.0
  C  C364  1  0.78587000  0.07075000  0.94614000  1.0
  C  C365  1  0.79485000  0.05214000  0.90579000  1.0
  C  C366  1  0.75245000  0.13494000  0.91181000  1.0
  C  C367  1  0.78477000  0.07548000  0.86827000  1.0
  C  C368  1  0.76490000  0.11713000  0.87164000  1.0
  C  C369  1  0.76441000  0.11191000  0.94920000  1.0
  C  C370  1  0.27445000  0.91586000  0.34413000  1.0
  C  C371  1  0.28202000  0.87564000  0.36287000  1.0
  C  C372  1  0.23348000  0.88196000  0.28285000  1.0
  C  C373  1  0.26743000  0.83812000  0.34116000  1.0
  C  C374  1  0.24324000  0.84130000  0.30105000  1.0
  C  C375  1  0.25052000  0.91904000  0.30425000  1.0
  C  C376  1  0.99498000  0.70493000  0.28995000  1.0
  C  C377  1  0.97316000  0.74535000  0.28430000  1.0
  C  C378  1  0.91801000  0.67110000  0.26328000  1.0
  C  C379  1  0.92362000  0.74947000  0.26805000  1.0
  C  C380  1  0.89640000  0.71211000  0.25675000  1.0
  C  C381  1  0.96738000  0.66804000  0.28005000  1.0
  C  C382  1  0.46740000  0.32626000  0.73236000  1.0
  C  C383  1  0.44810000  0.30589000  0.76865000  1.0
  C  C384  1  0.41213000  0.28322000  0.68672000  1.0
  C  C385  1  0.41058000  0.27404000  0.76480000  1.0
  C  C386  1  0.39312000  0.26231000  0.72355000  1.0
  C  C387  1  0.44946000  0.31517000  0.69172000  1.0
  C  C388  1  0.93849000  0.71527000  0.15335000  1.0
  C  C389  1  0.96317000  0.67656000  0.16177000  1.0
  C  C390  1  0.01297000  0.75491000  0.17721000  1.0
  C  C391  1  0.01260000  0.67626000  0.17866000  1.0
  C  C392  1  0.03730000  0.71571000  0.18670000  1.0
  C  C393  1  0.96326000  0.75417000  0.16081000  1.0
  C  C394  1  0.71065000  0.19984000  0.69016000  1.0
  C  C395  1  0.69802000  0.17542000  0.72632000  1.0
  C  C396  1  0.62392000  0.22534000  0.68594000  1.0
  C  C397  1  0.64918000  0.17839000  0.74410000  1.0
  C  C398  1  0.61187000  0.20198000  0.72276000  1.0
  C  C399  1  0.67382000  0.22531000  0.67053000  1.0
  C  C400  1  0.09845000  0.21757000  0.84124000  1.0
  C  C401  1  0.08682000  0.17772000  0.82302000  1.0
  C  C402  1  0.10201000  0.24920000  0.77008000  1.0
  C  C403  1  0.08347000  0.17333000  0.77813000  1.0
  C  C404  1  0.09031000  0.20958000  0.75186000  1.0
  C  C405  1  0.10553000  0.25329000  0.81485000  1.0
  C  C406  1  0.51411000  0.84363000  0.23425000  1.0
  C  C407  1  0.52787000  0.82218000  0.27174000  1.0
  C  C408  1  0.54488000  0.78374000  0.19129000  1.0
  C  C409  1  0.55066000  0.78130000  0.26996000  1.0
  C  C410  1  0.55945000  0.76219000  0.22933000  1.0
  C  C411  1  0.52135000  0.82417000  0.19456000  1.0
  C  C412  1  0.94586000  0.22250000  0.82803000  1.0
  C  C413  1  0.92231000  0.18768000  0.80788000  1.0
  C  C414  1  0.91422000  0.27002000  0.77226000  1.0
  C  C415  1  0.89474000  0.19398000  0.76994000  1.0
  C  C416  1  0.89188000  0.23464000  0.75176000  1.0
  C  C417  1  0.94224000  0.26364000  0.81014000  1.0
  C  C418  1  0.38703000  0.81353000  0.26978000  1.0
  C  C419  1  0.37888000  0.81634000  0.22527000  1.0
  C  C420  1  0.38704000  0.73581000  0.26530000  1.0
  C  C421  1  0.37640000  0.77875000  0.20037000  1.0
  C  C422  1  0.38189000  0.73884000  0.22073000  1.0
  C  C423  1  0.39107000  0.77333000  0.28976000  1.0
  C  C424  1  0.97968000  0.02662000  0.24455000  1.0
  C  C425  1  0.93585000  0.00400000  0.25552000  1.0
  C  C426  1  0.01984000  0.96008000  0.22182000  1.0
  C  C427  1  0.93321000  0.95925000  0.24947000  1.0
  C  C428  1  0.97559000  0.93748000  0.23290000  1.0
  C  C429  1  0.02139000  0.00487000  0.22758000  1.0
  C  C430  1  0.47271000  0.23464000  0.40983000  1.0
  C  C431  1  0.42874000  0.24605000  0.43223000  1.0
  C  C432  1  0.51744000  0.22431000  0.47726000  1.0
  C  C433  1  0.42813000  0.24628000  0.47744000  1.0
  C  C434  1  0.47276000  0.23543000  0.49966000  1.0
  C  C435  1  0.51681000  0.22368000  0.43218000  1.0
  C  C436  1  0.97298000  0.40979000  0.19366000  1.0
  C  C437  1  0.01678000  0.43252000  0.20472000  1.0
  C  C438  1  0.92285000  0.47498000  0.20123000  1.0
  C  C439  1  0.01405000  0.47660000  0.21415000  1.0
  C  C440  1  0.96694000  0.49750000  0.21240000  1.0
  C  C441  1  0.92622000  0.43086000  0.19186000  1.0
  C  C442  1  0.47941000  0.19780000  0.02719000  1.0
  C  C443  1  0.43521000  0.19206000  0.00333000  1.0
  C  C444  1  0.52684000  0.21099000  0.96150000  1.0
  C  C445  1  0.43571000  0.19598000  0.95826000  1.0
  C  C446  1  0.48196000  0.20524000  0.93742000  1.0
  C  C447  1  0.52487000  0.20738000  0.00649000  1.0
  C  C448  1  0.97384000  0.90587000  0.69906000  1.0
  C  C449  1  0.01832000  0.92882000  0.69060000  1.0
  C  C450  1  0.93074000  0.97214000  0.71838000  1.0
  C  C451  1  0.01984000  0.97364000  0.69616000  1.0
  C  C452  1  0.97570000  0.99504000  0.70980000  1.0
  C  C453  1  0.93033000  0.92733000  0.71308000  1.0
  C  C454  1  0.46479000  0.71753000  0.53412000  1.0
  C  C455  1  0.50968000  0.70882000  0.51199000  1.0
  C  C456  1  0.41933000  0.72184000  0.46639000  1.0
  C  C457  1  0.51014000  0.70693000  0.46679000  1.0
  C  C458  1  0.46480000  0.71355000  0.44424000  1.0
  C  C459  1  0.41978000  0.72409000  0.51147000  1.0
  C  C460  1  0.97164000  0.54068000  0.74410000  1.0
  C  C461  1  0.01645000  0.51847000  0.75331000  1.0
  C  C462  1  0.92958000  0.47343000  0.72636000  1.0
  C  C463  1  0.01867000  0.47357000  0.74890000  1.0
  C  C464  1  0.97490000  0.45134000  0.73560000  1.0
  C  C465  1  0.92848000  0.51836000  0.73055000  1.0
  C  C466  1  0.48484000  0.71778000  0.91496000  1.0
  C  C467  1  0.43955000  0.71135000  0.93742000  1.0
  C  C468  1  0.52693000  0.73870000  0.98139000  1.0
  C  C469  1  0.43744000  0.71951000  0.98168000  1.0
  C  C470  1  0.48116000  0.73310000  0.00343000  1.0
  C  C471  1  0.52834000  0.73153000  0.93676000  1.0
  Br  Br472  1  0.72324000  0.17461000  0.27391000  1.0
  Br  Br473  1  0.19569000  0.26893000  0.26659000  1.0
  Br  Br474  1  0.68412000  0.26724000  0.18827000  1.0
  Br  Br475  1  0.25041000  0.17192000  0.17465000  1.0
  Br  Br476  1  0.21353000  0.76274000  0.66833000  1.0
  Br  Br477  1  0.66635000  0.66742000  0.68563000  1.0
  Br  Br478  1  0.25419000  0.68146000  0.77812000  1.0
  Br  Br479  1  0.70647000  0.76049000  0.76452000  1.0
  Br  Br480  1  0.76995000  0.88192000  0.50215000  1.0
  Br  Br481  1  0.25018000  0.50058000  0.55326000  1.0
  Br  Br482  1  0.76055000  0.55227000  0.95907000  1.0
  Br  Br483  1  0.28611000  0.95046000  0.87896000  1.0
  Br  Br484  1  0.12467000  0.55411000  0.48320000  1.0
  Br  Br485  1  0.65570000  0.47086000  0.89570000  1.0
  Br  Br486  1  0.17308000  0.89204000  0.94439000  1.0
  Br  Br487  1  0.60198000  0.97939000  0.59670000  1.0
  Br  Br488  1  0.18958000  0.06339000  0.44681000  1.0
  Br  Br489  1  0.66712000  0.45066000  0.39494000  1.0
  Br  Br490  1  0.19155000  0.38503000  0.99566000  1.0
  Br  Br491  1  0.69121000  0.99445000  0.06618000  1.0
  Br  Br492  1  0.79918000  0.39423000  0.45958000  1.0
  Br  Br493  1  0.25792000  0.70805000  0.24502000  1.0
  Br  Br494  1  0.80148000  0.03929000  0.99715000  1.0
  Br  Br495  1  0.29573000  0.96663000  0.37359000  1.0
  Br  Br496  1  0.06277000  0.69999000  0.31133000  1.0
  Br  Br497  1  0.51795000  0.36994000  0.73839000  1.0
  Br  Br498  1  0.87054000  0.71496000  0.13183000  1.0
  Br  Br499  1  0.77905000  0.20203000  0.66979000  1.0
  Br  Br500  1  0.11019000  0.22237000  0.90170000  1.0
  Br  Br501  1  0.48979000  0.90147000  0.23652000  1.0
  Br  Br502  1  0.97515000  0.21496000  0.88356000  1.0
  Br  Br503  1  0.39126000  0.86440000  0.30384000  1.0
  Br  Br504  1  0.98248000  0.08745000  0.25259000  1.0
  Br  Br505  1  0.47250000  0.23411000  0.34843000  1.0
  Br  Br506  1  0.97705000  0.34983000  0.18089000  1.0
  Br  Br507  1  0.47764000  0.19264000  0.08838000  1.0
  Br  Br508  1  0.97263000  0.84492000  0.69165000  1.0
  Br  Br509  1  0.46495000  0.72033000  0.59547000  1.0
  Br  Br510  1  0.96942000  0.60178000  0.74992000  1.0
  Br  Br511  1  0.48748000  0.70735000  0.85449000  1.0
  O  O512  1  0.78501000  0.86475000  0.20718000  1.0
  O  O513  1  0.75078000  0.93103000  0.22448000  1.0
  O  O514  1  0.75164000  0.99971000  0.29143000  1.0
  O  O515  1  0.77041000  0.98932000  0.36197000  1.0
  O  O516  1  0.86096000  0.80163000  0.24193000  1.0
  O  O517  1  0.91657000  0.82245000  0.29324000  1.0
  O  O518  1  0.76451000  0.91131000  0.32242000  1.0
  O  O519  1  0.88228000  0.89479000  0.24903000  1.0
  O  O520  1  0.84596000  0.95835000  0.27074000  1.0
  O  O521  1  0.80103000  0.84720000  0.30326000  1.0
  O  O522  1  0.28056000  0.20590000  0.57483000  1.0
  O  O523  1  0.24494000  0.22309000  0.50899000  1.0
  O  O524  1  0.24599000  0.28878000  0.43821000  1.0
  O  O525  1  0.27979000  0.35567000  0.44354000  1.0
  O  O526  1  0.35699000  0.24514000  0.63572000  1.0
  O  O527  1  0.40184000  0.30230000  0.61213000  1.0
  O  O528  1  0.25889000  0.32191000  0.52585000  1.0
  O  O529  1  0.37763000  0.24820000  0.54254000  1.0
  O  O530  1  0.34067000  0.26806000  0.47881000  1.0
  O  O531  1  0.29372000  0.30231000  0.59026000  1.0
  O  O532  1  0.77482000  0.56910000  0.25308000  1.0
  O  O533  1  0.73658000  0.50507000  0.23465000  1.0
  O  O534  1  0.73751000  0.43785000  0.16850000  1.0
  O  O535  1  0.77358000  0.44259000  0.10249000  1.0
  O  O536  1  0.85249000  0.63084000  0.22536000  1.0
  O  O537  1  0.90378000  0.59475000  0.27122000  1.0
  O  O538  1  0.75584000  0.52601000  0.13789000  1.0
  O  O539  1  0.87193000  0.53900000  0.20758000  1.0
  O  O540  1  0.83299000  0.47539000  0.18995000  1.0
  O  O541  1  0.79215000  0.59015000  0.15852000  1.0
  O  O542  1  0.28595000  0.24536000  0.86695000  1.0
  O  O543  1  0.24861000  0.22582000  0.93083000  1.0
  O  O544  1  0.25369000  0.15822000  0.99750000  1.0
  O  O545  1  0.25897000  0.08661000  0.98392000  1.0
  O  O546  1  0.36006000  0.22072000  0.80311000  1.0
  O  O547  1  0.39583000  0.27446000  0.84145000  1.0
  O  O548  1  0.26731000  0.12902000  0.90661000  1.0
  O  O549  1  0.38567000  0.19997000  0.89273000  1.0
  O  O550  1  0.34656000  0.18130000  0.95588000  1.0
  O  O551  1  0.30304000  0.15006000  0.84239000  1.0
  O  O552  1  0.14774000  0.56443000  0.18430000  1.0
  O  O553  1  0.20768000  0.53206000  0.22460000  1.0
  O  O554  1  0.19112000  0.44514000  0.26972000  1.0
  O  O555  1  0.21345000  0.46701000  0.33679000  1.0
  O  O556  1  0.07748000  0.63283000  0.21316000  1.0
  O  O557  1  0.01821000  0.59877000  0.17298000  1.0
  O  O558  1  0.14499000  0.52380000  0.30608000  1.0
  O  O559  1  0.05564000  0.54194000  0.23537000  1.0
  O  O560  1  0.10444000  0.48212000  0.22467000  1.0
  O  O561  1  0.13915000  0.59210000  0.27958000  1.0
  O  O562  1  0.68875000  0.17954000  0.88145000  1.0
  O  O563  1  0.72151000  0.20022000  0.94648000  1.0
  O  O564  1  0.69906000  0.26754000  0.01133000  1.0
  O  O565  1  0.69890000  0.33797000  0.99174000  1.0
  O  O566  1  0.61933000  0.19918000  0.81209000  1.0
  O  O567  1  0.67017000  0.14011000  0.80862000  1.0
  O  O568  1  0.69103000  0.29419000  0.91985000  1.0
  O  O569  1  0.58146000  0.21289000  0.89915000  1.0
  O  O570  1  0.61398000  0.23348000  0.96442000  1.0
  O  O571  1  0.66010000  0.27155000  0.85489000  1.0
  O  O572  1  0.16730000  0.85624000  0.23641000  1.0
  O  O573  1  0.20358000  0.92255000  0.22200000  1.0
  O  O574  1  0.19716000  0.99865000  0.16235000  1.0
  O  O575  1  0.16174000  0.99418000  0.09590000  1.0
  O  O576  1  0.08141000  0.80117000  0.20399000  1.0
  O  O577  1  0.02313000  0.82972000  0.15892000  1.0
  O  O578  1  0.17363000  0.91492000  0.12661000  1.0
  O  O579  1  0.06658000  0.89486000  0.20931000  1.0
  O  O580  1  0.10352000  0.95944000  0.19166000  1.0
  O  O581  1  0.13637000  0.85036000  0.14259000  1.0
  O  O582  1  0.66622000  0.26403000  0.57091000  1.0
  O  O583  1  0.70780000  0.23831000  0.51143000  1.0
  O  O584  1  0.69931000  0.16715000  0.44938000  1.0
  O  O585  1  0.68022000  0.09760000  0.46476000  1.0
  O  O586  1  0.57891000  0.25497000  0.62520000  1.0
  O  O587  1  0.55372000  0.27382000  0.69184000  1.0
  O  O588  1  0.67526000  0.14619000  0.54144000  1.0
  O  O589  1  0.56608000  0.22525000  0.54195000  1.0
  O  O590  1  0.60530000  0.20136000  0.48105000  1.0
  O  O591  1  0.63543000  0.17329000  0.60165000  1.0
  O  O592  1  0.17061000  0.06618000  0.73909000  1.0
  O  O593  1  0.20875000  0.00283000  0.72016000  1.0
  O  O594  1  0.20191000  0.93873000  0.65206000  1.0
  O  O595  1  0.17798000  0.95021000  0.58289000  1.0
  O  O596  1  0.09591000  0.12698000  0.71786000  1.0
  O  O597  1  0.08086000  0.09583000  0.78241000  1.0
  O  O598  1  0.18807000  0.02896000  0.62473000  1.0
  O  O599  1  0.06940000  0.03888000  0.69822000  1.0
  O  O600  1  0.10851000  0.97653000  0.67762000  1.0
  O  O601  1  0.14878000  0.09122000  0.64621000  1.0
  O  O602  1  0.66367000  0.74436000  0.37786000  1.0
  O  O603  1  0.69879000  0.72432000  0.44260000  1.0
  O  O604  1  0.68586000  0.65964000  0.51020000  1.0
  O  O605  1  0.70209000  0.58994000  0.49323000  1.0
  O  O606  1  0.59007000  0.72327000  0.31152000  1.0
  O  O607  1  0.56265000  0.78200000  0.34714000  1.0
  O  O608  1  0.67350000  0.62943000  0.41974000  1.0
  O  O609  1  0.56098000  0.70534000  0.40192000  1.0
  O  O610  1  0.59751000  0.68709000  0.46641000  1.0
  O  O611  1  0.64110000  0.65062000  0.35425000  1.0
  O  O612  1  0.16403000  0.37762000  0.70101000  1.0
  O  O613  1  0.20213000  0.44226000  0.71791000  1.0
  O  O614  1  0.20499000  0.50897000  0.78652000  1.0
  O  O615  1  0.17807000  0.49835000  0.85506000  1.0
  O  O616  1  0.08918000  0.31833000  0.74018000  1.0
  O  O617  1  0.16790000  0.28994000  0.73812000  1.0
  O  O618  1  0.19228000  0.42138000  0.81653000  1.0
  O  O619  1  0.06896000  0.40899000  0.74695000  1.0
  O  O620  1  0.10772000  0.47175000  0.76709000  1.0
  O  O621  1  0.15224000  0.35946000  0.79742000  1.0
  O  O622  1  0.67068000  0.70039000  0.08043000  1.0
  O  O623  1  0.70764000  0.71585000  0.01464000  1.0
  O  O624  1  0.70782000  0.77896000  0.94305000  1.0
  O  O625  1  0.68894000  0.84971000  0.95092000  1.0
  O  O626  1  0.59517000  0.74002000  0.14155000  1.0
  O  O627  1  0.54165000  0.78936000  0.11413000  1.0
  O  O628  1  0.69554000  0.81445000  0.03072000  1.0
  O  O629  1  0.57522000  0.74144000  0.04699000  1.0
  O  O630  1  0.61367000  0.76112000  0.98367000  1.0
  O  O631  1  0.65685000  0.79603000  0.09398000  1.0
  O  O632  1  0.74293000  0.43144000  0.73843000  1.0
  O  O633  1  0.78556000  0.36886000  0.75344000  1.0
  O  O634  1  0.86794000  0.31686000  0.72579000  1.0
  O  O635  1  0.91278000  0.34742000  0.78019000  1.0
  O  O636  1  0.74524000  0.50262000  0.67530000  1.0
  O  O637  1  0.78772000  0.50081000  0.61188000  1.0
  O  O638  1  0.88389000  0.40732000  0.71680000  1.0
  O  O639  1  0.77195000  0.41855000  0.64109000  1.0
  O  O640  1  0.81139000  0.35523000  0.65816000  1.0
  O  O641  1  0.84181000  0.47029000  0.70392000  1.0
  O  O642  1  0.27969000  0.75696000  0.07502000  1.0
  O  O643  1  0.26188000  0.74155000  0.00462000  1.0
  O  O644  1  0.25931000  0.66511000  0.95343000  1.0
  O  O645  1  0.27462000  0.59457000  0.96708000  1.0
  O  O646  1  0.36819000  0.74315000  0.13255000  1.0
  O  O647  1  0.34023000  0.81226000  0.13681000  1.0
  O  O648  1  0.26087000  0.65651000  0.05189000  1.0
  O  O649  1  0.38304000  0.74004000  0.03914000  1.0
  O  O650  1  0.35574000  0.68657000  0.99381000  1.0
  O  O651  1  0.33417000  0.66915000  0.08587000  1.0
  O  O652  1  0.78220000  0.07926000  0.70226000  1.0
  O  O653  1  0.74391000  0.01459000  0.71873000  1.0
  O  O654  1  0.75136000  0.93726000  0.77628000  1.0
  O  O655  1  0.79651000  0.93793000  0.83845000  1.0
  O  O656  1  0.87384000  0.12734000  0.73549000  1.0
  O  O657  1  0.81303000  0.16234000  0.77332000  1.0
  O  O658  1  0.77786000  0.01916000  0.81507000  1.0
  O  O659  1  0.88309000  0.03707000  0.72822000  1.0
  O  O660  1  0.84551000  0.97350000  0.74693000  1.0
  O  O661  1  0.81751000  0.08166000  0.79718000  1.0
  O  O662  1  0.27109000  0.67633000  0.37160000  1.0
  O  O663  1  0.23014000  0.70162000  0.43168000  1.0
  O  O664  1  0.23708000  0.77176000  0.49276000  1.0
  O  O665  1  0.26777000  0.83881000  0.48027000  1.0
  O  O666  1  0.36022000  0.68319000  0.31899000  1.0
  O  O667  1  0.40918000  0.66111000  0.26395000  1.0
  O  O668  1  0.26433000  0.79227000  0.40250000  1.0
  O  O669  1  0.37105000  0.71849000  0.40131000  1.0
  O  O670  1  0.33039000  0.73822000  0.46304000  1.0
  O  O671  1  0.29907000  0.76546000  0.33972000  1.0
