data_EDUSIF_clean
_audit_creation_date              2024-06-11
_audit_creation_method            'Materials Studio'
_symmetry_space_group_name_H-M    'P1'
_symmetry_Int_Tables_number       1
_symmetry_cell_setting            triclinic
loop_
_symmetry_equiv_pos_as_xyz
  x,y,z
_cell_length_a                    18.2660
_cell_length_b                    18.2660
_cell_length_c                    18.2660
_cell_angle_alpha                 60.0000
_cell_angle_beta                  60.0000
_cell_angle_gamma                 60.0000
loop_
_atom_site_label
_atom_site_type_symbol
_atom_site_fract_x
_atom_site_fract_y
_atom_site_fract_z
_atom_site_U_iso_or_equiv
_atom_site_adp_type
_atom_site_occupancy
Zn1    Zn    0.29338   0.29338   0.29338   0.01267  Uiso   1.00
Zn2    Zn    0.29338   0.29338   0.11986   0.01267  Uiso   1.00
Zn3    Zn    0.29338   0.11986   0.29338   0.01267  Uiso   1.00
Zn4    Zn    0.11986   0.29338   0.29338   0.01267  Uiso   1.00
Zn5    Zn    0.70662   0.70662   0.70662   0.01267  Uiso   1.00
Zn6    Zn    0.70662   0.70662   0.88014   0.01267  Uiso   1.00
Zn7    Zn    0.88014   0.70662   0.70662   0.01267  Uiso   1.00
Zn8    Zn    0.70662   0.88014   0.70662   0.01267  Uiso   1.00
H1     H     0.15460   0.45520   0.45520   0.01267  Uiso   1.00
H2     H     0.45520   0.15460   0.93500   0.01267  Uiso   1.00
H3     H     0.45520   0.93500   0.15460   0.01267  Uiso   1.00
H4     H     0.93500   0.45520   0.45520   0.01267  Uiso   1.00
H5     H     0.15460   0.45520   0.93500   0.01267  Uiso   1.00
H6     H     0.45520   0.93500   0.45520   0.01267  Uiso   1.00
H7     H     0.45520   0.15460   0.45520   0.01267  Uiso   1.00
H8     H     0.93500   0.45520   0.15460   0.01267  Uiso   1.00
H9     H     0.15460   0.93500   0.45520   0.01267  Uiso   1.00
H10    H     0.45520   0.45520   0.15460   0.01267  Uiso   1.00
H11    H     0.45520   0.45520   0.93500   0.01267  Uiso   1.00
H12    H     0.93500   0.15460   0.45520   0.01267  Uiso   1.00
H13    H     0.54480   0.84540   0.54480   0.01267  Uiso   1.00
H14    H     0.84540   0.54480   0.06500   0.01267  Uiso   1.00
H15    H     0.06500   0.54480   0.84540   0.01267  Uiso   1.00
H16    H     0.54480   0.06500   0.54480   0.01267  Uiso   1.00
H17    H     0.54480   0.84540   0.06500   0.01267  Uiso   1.00
H18    H     0.06500   0.54480   0.54480   0.01267  Uiso   1.00
H19    H     0.84540   0.54480   0.54480   0.01267  Uiso   1.00
H20    H     0.54480   0.06500   0.84540   0.01267  Uiso   1.00
H21    H     0.06500   0.84540   0.54480   0.01267  Uiso   1.00
H22    H     0.54480   0.54480   0.84540   0.01267  Uiso   1.00
H23    H     0.54480   0.54480   0.06500   0.01267  Uiso   1.00
H24    H     0.84540   0.06500   0.54480   0.01267  Uiso   1.00
C1     C     0.09270   0.47310   0.47310   0.01267  Uiso   1.00
C2     C     0.47310   0.09270   0.96110   0.01267  Uiso   1.00
C3     C     0.47310   0.96110   0.09270   0.01267  Uiso   1.00
C4     C     0.96110   0.47310   0.47310   0.01267  Uiso   1.00
C5     C     0.09270   0.47310   0.96110   0.01267  Uiso   1.00
C6     C     0.47310   0.96110   0.47310   0.01267  Uiso   1.00
C7     C     0.47310   0.09270   0.47310   0.01267  Uiso   1.00
C8     C     0.96110   0.47310   0.09270   0.01267  Uiso   1.00
C9     C     0.09270   0.96110   0.47310   0.01267  Uiso   1.00
C10    C     0.47310   0.47310   0.09270   0.01267  Uiso   1.00
C11    C     0.47310   0.47310   0.96110   0.01267  Uiso   1.00
C12    C     0.96110   0.09270   0.47310   0.01267  Uiso   1.00
C13    C     0.52690   0.90730   0.52690   0.01267  Uiso   1.00
C14    C     0.90730   0.52690   0.03890   0.01267  Uiso   1.00
C15    C     0.03890   0.52690   0.90730   0.01267  Uiso   1.00
C16    C     0.52690   0.03890   0.52690   0.01267  Uiso   1.00
C17    C     0.52690   0.90730   0.03890   0.01267  Uiso   1.00
C18    C     0.03890   0.52690   0.52690   0.01267  Uiso   1.00
C19    C     0.90730   0.52690   0.52690   0.01267  Uiso   1.00
C20    C     0.52690   0.03890   0.90730   0.01267  Uiso   1.00
C21    C     0.03890   0.90730   0.52690   0.01267  Uiso   1.00
C22    C     0.52690   0.52690   0.90730   0.01267  Uiso   1.00
C23    C     0.52690   0.52690   0.03890   0.01267  Uiso   1.00
C24    C     0.90730   0.03890   0.52690   0.01267  Uiso   1.00
C25    C     0.11130   0.38870   0.38870   0.01267  Uiso   1.00
C26    C     0.05380   0.44620   0.44620   0.01267  Uiso   1.00
C27    C     0.38870   0.11130   0.11130   0.01267  Uiso   1.00
C28    C     0.44620   0.05380   0.05380   0.01267  Uiso   1.00
C29    C     0.11130   0.38870   0.11130   0.01267  Uiso   1.00
C30    C     0.05380   0.44620   0.05380   0.01267  Uiso   1.00
C31    C     0.38870   0.11130   0.38870   0.01267  Uiso   1.00
C32    C     0.44620   0.05380   0.44620   0.01267  Uiso   1.00
C33    C     0.11130   0.11130   0.38870   0.01267  Uiso   1.00
C34    C     0.05380   0.05380   0.44620   0.01267  Uiso   1.00
C35    C     0.38870   0.38870   0.11130   0.01267  Uiso   1.00
C36    C     0.44620   0.44620   0.05380   0.01267  Uiso   1.00
C37    C     0.61130   0.88870   0.61130   0.01267  Uiso   1.00
C38    C     0.55380   0.94620   0.55380   0.01267  Uiso   1.00
C39    C     0.88870   0.61130   0.88870   0.01267  Uiso   1.00
C40    C     0.94620   0.55380   0.94620   0.01267  Uiso   1.00
C41    C     0.61130   0.88870   0.88870   0.01267  Uiso   1.00
C42    C     0.55380   0.94620   0.94620   0.01267  Uiso   1.00
C43    C     0.88870   0.61130   0.61130   0.01267  Uiso   1.00
C44    C     0.94620   0.55380   0.55380   0.01267  Uiso   1.00
C45    C     0.88870   0.88870   0.61130   0.01267  Uiso   1.00
C46    C     0.94620   0.94620   0.55380   0.01267  Uiso   1.00
C47    C     0.61130   0.61130   0.88870   0.01267  Uiso   1.00
C48    C     0.55380   0.55380   0.94620   0.01267  Uiso   1.00
O1     O     0.25000   0.25000   0.25000   0.01267  Uiso   1.00
O2     O     0.75000   0.75000   0.75000   0.01267  Uiso   1.00
O3     O     0.19777   0.36600   0.36600   0.01267  Uiso   1.00
O4     O     0.36600   0.19777   0.07023   0.01267  Uiso   1.00
O5     O     0.36600   0.07023   0.19777   0.01267  Uiso   1.00
O6     O     0.07023   0.36600   0.36600   0.01267  Uiso   1.00
O7     O     0.19777   0.36600   0.07023   0.01267  Uiso   1.00
O8     O     0.36600   0.07023   0.36600   0.01267  Uiso   1.00
O9     O     0.36600   0.19777   0.36600   0.01267  Uiso   1.00
O10    O     0.07023   0.36600   0.19777   0.01267  Uiso   1.00
O11    O     0.19777   0.07023   0.36600   0.01267  Uiso   1.00
O12    O     0.36600   0.36600   0.19777   0.01267  Uiso   1.00
O13    O     0.36600   0.36600   0.07023   0.01267  Uiso   1.00
O14    O     0.07023   0.19777   0.36600   0.01267  Uiso   1.00
O15    O     0.63400   0.80223   0.63400   0.01267  Uiso   1.00
O16    O     0.80223   0.63400   0.92977   0.01267  Uiso   1.00
O17    O     0.92977   0.63400   0.80223   0.01267  Uiso   1.00
O18    O     0.63400   0.92977   0.63400   0.01267  Uiso   1.00
O19    O     0.63400   0.80223   0.92977   0.01267  Uiso   1.00
O20    O     0.92977   0.63400   0.63400   0.01267  Uiso   1.00
O21    O     0.80223   0.63400   0.63400   0.01267  Uiso   1.00
O22    O     0.63400   0.92977   0.80223   0.01267  Uiso   1.00
O23    O     0.92977   0.80223   0.63400   0.01267  Uiso   1.00
O24    O     0.63400   0.63400   0.80223   0.01267  Uiso   1.00
O25    O     0.63400   0.63400   0.92977   0.01267  Uiso   1.00
O26    O     0.80223   0.92977   0.63400   0.01267  Uiso   1.00
loop_
_geom_bond_atom_site_label_1
_geom_bond_atom_site_label_2
_geom_bond_distance
_geom_bond_site_symmetry_2
_ccdc_geom_bond_type
Zn1    O1      1.941   .     S
Zn1    O3      1.922   .     S
Zn1    O9      1.922   .     S
Zn1    O12     1.922   .     S
Zn2    O1      1.941   .     S
Zn2    O4      1.922   .     S
Zn2    O7      1.922   .     S
Zn2    O13     1.922   .     S
Zn3    O1      1.941   .     S
Zn3    O5      1.922   .     S
Zn3    O8      1.922   .     S
Zn3    O11     1.922   .     S
Zn4    O1      1.941   .     S
Zn4    O6      1.922   .     S
Zn4    O10     1.922   .     S
Zn4    O14     1.922   .     S
Zn5    O2      1.941   .     S
Zn5    O15     1.922   .     S
Zn5    O21     1.922   .     S
Zn5    O24     1.922   .     S
Zn6    O2      1.941   .     S
Zn6    O16     1.922   .     S
Zn6    O19     1.922   .     S
Zn6    O25     1.922   .     S
Zn7    O2      1.941   .     S
Zn7    O17     1.922   .     S
Zn7    O20     1.922   .     S
Zn7    O23     1.922   .     S
Zn8    O2      1.941   .     S
Zn8    O18     1.922   .     S
Zn8    O22     1.922   .     S
Zn8    O26     1.922   .     S
H1     C1      0.927   .     S
H2     C2      0.927   .     S
H3     C3      0.927   .     S
H4     C4      0.927   .     S
H5     C5      0.927   .     S
H6     C6      0.927   .     S
H7     C7      0.927   .     S
H8     C8      0.927   .     S
H9     C9      0.927   .     S
H10    C10     0.927   .     S
H11    C11     0.927   .     S
H12    C12     0.927   .     S
H13    C13     0.927   .     S
H14    C14     0.927   .     S
H15    C15     0.927   .     S
H16    C16     0.927   .     S
H17    C17     0.927   .     S
H18    C18     0.927   .     S
H19    C19     0.927   .     S
H20    C20     0.927   .     S
H21    C21     0.927   .     S
H22    C22     0.927   .     S
H23    C23     0.927   .     S
H24    C24     0.927   .     S
C1     C18     1.390   .     A
C1     C26     1.388   .     A
C2     C20     1.390   .     A
C2     C28     1.388   1_556 A
C3     C17     1.390   .     A
C3     C28     1.388   1_565 A
C4     C19     1.390   .     A
C4     C26     1.388   1_655 A
C5     C15     1.390   .     A
C5     C30     1.388   1_556 A
C6     C13     1.390   .     A
C6     C32     1.388   1_565 A
C7     C16     1.390   .     A
C7     C32     1.388   .     A
C8     C14     1.390   .     A
C8     C30     1.388   1_655 A
C9     C21     1.390   .     A
C9     C34     1.388   1_565 A
C10    C23     1.390   .     A
C10    C36     1.388   .     A
C11    C22     1.390   .     A
C11    C36     1.388   1_556 A
C12    C24     1.390   .     A
C12    C34     1.388   1_655 A
C13    C38     1.388   .     A
C14    C40     1.388   1_554 A
C15    C40     1.388   1_455 A
C16    C38     1.388   1_545 A
C17    C42     1.388   1_554 A
C18    C44     1.388   1_455 A
C19    C44     1.388   .     A
C20    C42     1.388   1_545 A
C21    C46     1.388   1_455 A
C22    C48     1.388   .     A
C23    C48     1.388   1_554 A
C24    C46     1.388   1_545 A
C25    C26     1.485   .     S
C25    O3      1.304   .     A
C25    O6      1.304   .     A
C26    C4      1.388   1_455 A
C27    C28     1.485   .     S
C27    O4      1.304   .     A
C27    O5      1.304   .     A
C28    C2      1.388   1_554 A
C28    C3      1.388   1_545 A
C29    C30     1.485   .     S
C29    O7      1.304   .     A
C29    O10     1.304   .     A
C30    C5      1.388   1_554 A
C30    C8      1.388   1_455 A
C31    C32     1.485   .     S
C31    O8      1.304   .     A
C31    O9      1.304   .     A
C32    C6      1.388   1_545 A
C33    C34     1.485   .     S
C33    O11     1.304   .     A
C33    O14     1.304   .     A
C34    C12     1.388   1_455 A
C34    C9      1.388   1_545 A
C35    C36     1.485   .     S
C35    O12     1.304   .     A
C35    O13     1.304   .     A
C36    C11     1.388   1_554 A
C37    C38     1.485   .     S
C37    O15     1.304   .     A
C37    O18     1.304   .     A
C38    C16     1.388   1_565 A
C39    C40     1.485   .     S
C39    O16     1.304   .     A
C39    O17     1.304   .     A
C40    C15     1.388   1_655 A
C40    C14     1.388   1_556 A
C41    C42     1.485   .     S
C41    O19     1.304   .     A
C41    O22     1.304   .     A
C42    C17     1.388   1_556 A
C42    C20     1.388   1_565 A
C43    C44     1.485   .     S
C43    O20     1.304   .     A
C43    O21     1.304   .     A
C44    C18     1.388   1_655 A
C45    C46     1.485   .     S
C45    O23     1.304   .     A
C45    O26     1.304   .     A
C46    C21     1.388   1_655 A
C46    C24     1.388   1_565 A
C47    C48     1.485   .     S
C47    O24     1.304   .     A
C47    O25     1.304   .     A
C48    C23     1.388   1_556 A
